*Heading
** Job name: Global_Model Model name: Model-1
** Generated by: Abaqus/CAE 2016
*Preprint, echo=NO, model=NO, history=NO, contact=NO
**
** PARTS
**
*Part, name=assignment2
*Node
      1,         -70.,          -5.
      2,         -50.,          -5.
      3,         -50.,          75.
      4,         -70.,          75.
      5,         -50.,         -25.
      6,         -70.,         -25.
      7,          50.,         -25.
      8,          50.,          -5.
      9,         -66.,          -5.
     10,         -62.,          -5.
     11,         -58.,          -5.
     12,         -54.,          -5.
     13,         -50.,  -1.79999995
     14,         -50.,   1.39999998
     15,         -50.,    4.5999999
     16,         -50.,   7.80000019
     17,         -50.,          11.
     18,         -50.,   14.1999998
     19,         -50.,   17.3999996
     20,         -50.,   20.6000004
** ... 926 like lines cut
*Element, type=CPS8R
  1,   1,   9, 129,  64, 337, 338, 339, 340
  2,   9,  10, 130, 129, 341, 342, 343, 338
  3,  10,  11, 131, 130, 344, 345, 346, 342
  4,  11,  12, 132, 131, 347, 348, 349, 345
  5,  12,   2,  13, 132, 350, 351, 352, 348
  6,  64, 129, 133,  63, 339, 353, 354, 355
  7, 129, 130, 134, 133, 343, 356, 357, 353
  8, 130, 131, 135, 134, 346, 358, 359, 356
  9, 131, 132, 136, 135, 349, 360, 361, 358
 10, 132,  13,  14, 136, 352, 362, 363, 360
 11,  63, 133, 137,  62, 354, 364, 365, 366
 12, 133, 134, 138, 137, 357, 367, 368, 364
 13, 134, 135, 139, 138, 359, 369, 370, 367
 14, 135, 136, 140, 139, 361, 371, 372, 369
 15, 136,  14,  15, 140, 363, 373, 374, 371
 16,  62, 137, 141,  61, 365, 375, 376, 377
 17, 137, 138, 142, 141, 368, 378, 379, 375
 18, 138, 139, 143, 142, 370, 380, 381, 378
 19, 139, 140, 144, 143, 372, 382, 383, 380
 20, 140,  15,  16, 144, 374, 384, 385, 382
** ... 255 like lines cut
*Nset, nset=Set-1, generate
   1,  946,    1
*Elset, elset=Set-1, generate
   1,  275,    1
** Section: Section_assignment2
*Solid Section, elset=Set-1, material=steel
2.,
*End Part
**  
**
** ASSEMBLY
**
*Assembly, name=Assembly
**  
*Instance, name=assignment2-1, part=assignment2
*End Instance
**  
*Nset, nset=Set-1, instance=assignment2-1
   3,   4,  37,  38,  39,  40, 607, 610, 612, 614, 616
*Elset, elset=Set-1, instance=assignment2-1, generate
 121,  125,    1
*Nset, nset=Set-2, instance=assignment2-1
 8,
*Nset, nset=Set-3, instance=assignment2-1
 7,
*End Assembly
** 
** MATERIALS
** 
*Material, name=steel
*Elastic
210000., 0.3
*Plastic
500.,0.
** ----------------------------------------------------------------
** 
** STEP: Step-1
** 
*Step, name=Step-1, nlgeom=NO
*Static
1., 1., 1e-05, 1.
** 
** BOUNDARY CONDITIONS
** 
** Name: BC-1 Type: Symmetry/Antisymmetry/Encastre
*Boundary
Set-1, ENCASTRE
** 
** LOADS
** 
** Name: Load-1   Type: Concentrated force
*Cload
Set-2, 2, -250.
** Name: Load-2   Type: Concentrated force
*Cload
Set-3, 2, -250.
** 
** OUTPUT REQUESTS
** 
*Restart, write, frequency=0
** 
** FIELD OUTPUT: F-Output-1
** 
*Output, field
*Node Output
RF, U
*Element Output, directions=YES
NFORC, S
** 
** HISTORY OUTPUT: H-Output-1
** 
*Output, history, variable=PRESELECT
*End Step
