*Heading
** Job name: Submodel_AB_5-job Model name: Submodel_AB_5mm
** Generated by: Abaqus/CAE 2016
*Preprint, echo=NO, model=NO, history=NO, contact=NO
**
** PARTS
**
*Part, name=assignment2
*Node
      1,         -45.,          -5.
      2,         -45.,         -25.
      3,  -31.2399998,         -25.
      4,  -31.2399998,          -5.
      5,         -50.,          -5.
      6,         -50.,         -25.
      7,         -70.,          -5.
      8,         -70.,         -25.
      9,         -70.,           0.
     10,         -50.,           0.
     11,         -50.,   15.6199999
     12,         -70.,   15.6199999
     13,         -45.,          -7.
     14,         -45.,          -9.
     15,         -45.,         -11.
     16,         -45.,         -13.
     17,         -45.,         -15.
     18,         -45.,         -17.
     19,         -45.,         -19.
     20,         -45.,         -21.
** ... 1167 like lines cut
*Element, type=CPS8R
  1,   1,  13, 133,  48, 412, 413, 414, 415
  2,  13,  14, 134, 133, 416, 417, 418, 413
  3,  14,  15, 135, 134, 419, 420, 421, 417
  4,  15,  16, 136, 135, 422, 423, 424, 420
  5,  16,  17, 137, 136, 425, 426, 427, 423
  6,  17,  18, 138, 137, 428, 429, 430, 426
  7,  18,  19, 139, 138, 431, 432, 433, 429
  8,  19,  20, 140, 139, 434, 435, 436, 432
  9,  20,  21, 141, 140, 437, 438, 439, 435
 10,  21,   2,  22, 141, 440, 441, 442, 438
 11,  48, 133, 142,  47, 414, 443, 444, 445
 12, 133, 134, 143, 142, 418, 446, 447, 443
 13, 134, 135, 144, 143, 421, 448, 449, 446
 14, 135, 136, 145, 144, 424, 450, 451, 448
 15, 136, 137, 146, 145, 427, 452, 453, 450
 16, 137, 138, 147, 146, 430, 454, 455, 452
 17, 138, 139, 148, 147, 433, 456, 457, 454
 18, 139, 140, 149, 148, 436, 458, 459, 456
 19, 140, 141, 150, 149, 439, 460, 461, 458
 20, 141,  22,  23, 150, 442, 462, 463, 460
** ... 343 like lines cut
*Element, type=CPS6M
361,   10,  128,  132, 1127, 1178, 1179
362,   60,    1,  129,  685, 1180, 1181
363,  130,  131,   61, 1182, 1183, 1184
*Nset, nset=Set-1, generate
    1,  1187,     1
*Elset, elset=Set-1, generate
   1,  366,    1
** Section: Section_assignment2
*Solid Section, elset=Set-1, material=steel
2.,
*End Part
**  
**
** ASSEMBLY
**
*Assembly, name=Assembly
**  
*Instance, name=assignment2-1, part=assignment2
*End Instance
**  
*Nset, nset=Set-4, instance=assignment2-1
   11,   12,  107,  108,  109,  110,  111,  112,  113,  114,  115, 1105, 1108, 1110, 1112, 1114
 1116, 1118, 1120, 1122, 1124
*Elset, elset=Set-4, instance=assignment2-1, generate
 321,  330,    1
*Elset, elset=_Surf-1_S3, internal, instance=assignment2-1, generate
  91,  100,    1
*Surface, type=ELEMENT, name=Surf-1
_Surf-1_S3, S3
*Submodel, type=NODE, exteriorTolerance=0.05
Set-4, 
*Submodel, type=SURFACE, exteriorTolerance=0.05
Surf-1, 
*End Assembly
** 
** MATERIALS
** 
*Material, name=steel
*Elastic
210000., 0.3
*Plastic
500.,0.
** ----------------------------------------------------------------
** 
** STEP: Step-1
** 
*Step, name=Step-1, nlgeom=NO
*Static
1., 1., 1e-05, 1.
** 
** BOUNDARY CONDITIONS
** 
** Name: BC-1 Type: Submodel
*Boundary, submodel, step=1
Set-4, 1, 1
Set-4, 2, 2
** 
** LOADS
** 
** Name: Load-1   Type: Submodel
*Dsload, submodel, step=1
Surf-1
** 
** OUTPUT REQUESTS
** 
*Restart, write, frequency=0
** 
** FIELD OUTPUT: F-Output-1
** 
*Output, field
*Node Output
RF, U
*Element Output, directions=YES
NFORC, S
** 
** HISTORY OUTPUT: H-Output-1
** 
*Output, history, variable=PRESELECT
*End Step
