*Heading
** Job name: Submodel_AB_1-job Model name: Submodel_AB_1mm
** Generated by: Abaqus/CAE 2016
*Preprint, echo=NO, model=NO, history=NO, contact=NO
**
** PARTS
**
*Part, name=assignment2
*Node
      1,         -49.,          -5.
      2,         -49.,         -25.
      3,  -31.2399998,         -25.
      4,  -31.2399998,          -5.
      5,         -50.,          -5.
      6,         -50.,         -25.
      7,         -70.,          -5.
      8,         -70.,         -25.
      9,         -70.,          -4.
     10,         -50.,          -4.
     11,         -50.,   15.6199999
     12,         -70.,   15.6199999
     13,         -49.,          -7.
     14,         -49.,          -9.
     15,         -49.,         -11.
     16,         -49.,         -13.
     17,         -49.,         -15.
     18,         -49.,         -17.
     19,         -49.,         -19.
     20,         -49.,         -21.
** ... 1026 like lines cut
*Element, type=CPS8R
  1,   1,  13, 121,  48, 364, 365, 366, 367
  2,  13,  14, 122, 121, 368, 369, 370, 365
  3,  14,  15, 123, 122, 371, 372, 373, 369
  4,  15,  16, 124, 123, 374, 375, 376, 372
  5,  16,  17, 125, 124, 377, 378, 379, 375
  6,  17,  18, 126, 125, 380, 381, 382, 378
  7,  18,  19, 127, 126, 383, 384, 385, 381
  8,  19,  20, 128, 127, 386, 387, 388, 384
  9,  20,  21, 129, 128, 389, 390, 391, 387
 10,  21,   2,  22, 129, 392, 393, 394, 390
 11,  48, 121, 130,  47, 366, 395, 396, 397
 12, 121, 122, 131, 130, 370, 398, 399, 395
 13, 122, 123, 132, 131, 373, 400, 401, 398
 14, 123, 124, 133, 132, 376, 402, 403, 400
 15, 124, 125, 134, 133, 379, 404, 405, 402
 16, 125, 126, 135, 134, 382, 406, 407, 404
 17, 126, 127, 136, 135, 385, 408, 409, 406
 18, 127, 128, 137, 136, 388, 410, 411, 408
 19, 128, 129, 138, 137, 391, 412, 413, 410
 20, 129,  22,  23, 138, 394, 414, 415, 412
** ... 300 like lines cut
*Element, type=CPS6M
321,   10,    5,    1, 1036,  586, 1046
*Nset, nset=Set-1, generate
    1,  1046,     1
*Elset, elset=Set-1, generate
   1,  321,    1
** Section: Section_assignment2
*Solid Section, elset=Set-1, material=steel
2.,
*End Part
**  
**
** ASSEMBLY
**
*Assembly, name=Assembly
**  
*Instance, name=assignment2-1, part=assignment2
*End Instance
**  
*Nset, nset=Set-4, instance=assignment2-1
   11,   12,  103,  104,  105,  106,  107,  108,  109,  110,  111, 1015, 1018, 1020, 1022, 1024
 1026, 1028, 1030, 1032, 1034
*Elset, elset=Set-4, instance=assignment2-1, generate
 301,  310,    1
*Elset, elset=_Surf-1_S3, internal, instance=assignment2-1, generate
  91,  100,    1
*Surface, type=ELEMENT, name=Surf-1
_Surf-1_S3, S3
*Submodel, type=NODE, exteriorTolerance=0.05
Set-4, 
*Submodel, type=SURFACE, exteriorTolerance=0.05
Surf-1, 
*End Assembly
** 
** MATERIALS
** 
*Material, name=steel
*Elastic
210000., 0.3
*Plastic
500.,0.
** ----------------------------------------------------------------
** 
** STEP: Step-1
** 
*Step, name=Step-1, nlgeom=NO
*Static
1., 1., 1e-05, 1.
** 
** BOUNDARY CONDITIONS
** 
** Name: BC-1 Type: Submodel
*Boundary, submodel, step=1
Set-4, 1, 1
Set-4, 2, 2
** 
** LOADS
** 
** Name: Load-1   Type: Submodel
*Dsload, submodel, step=1
Surf-1
** 
** OUTPUT REQUESTS
** 
*Restart, write, frequency=0
** 
** FIELD OUTPUT: F-Output-1
** 
*Output, field
*Node Output
RF, U
*Element Output, directions=YES
NFORC, S
** 
** HISTORY OUTPUT: H-Output-1
** 
*Output, history, variable=PRESELECT
*End Step
