 Abaqus/Standard 3DEXPERIENCE R2016x                  DATE 02-May-2018 TIME 21:13:03
 SUMMARY OF JOB INFORMATION:
 STEP  INC ATT SEVERE EQUIL TOTAL  TOTAL      STEP       INC OF       DOF    IF
               DISCON ITERS ITERS  TIME/    TIME/LPF    TIME/LPF    MONITOR RIKS
               ITERS               FREQ
   1     1   1U    0     1     1  0.00       0.00       1.000     
   1     1   2U    1     2     3  0.00       0.00       0.2500    
   1     1   3U    0     4     4  0.00       0.00       0.06250   
   1     1   4U    1     4     5  0.00       0.00       0.01562   
   1     1   5     0     3     3  0.00391    0.00391    0.003906  
   1     2   1U    2     3     5  0.00391    0.00391    0.003906  
   1     2   2     0     1     1  0.00488    0.00488    0.0009766 
   1     3   1     0     1     1  0.00635    0.00635    0.001465  
   1     4   1U    0     5     5  0.00635    0.00635    0.002197  
   1     4   2U    0     4     4  0.00635    0.00635    0.0005493 
   1     4   3U    0     4     4  0.00635    0.00635    0.0001373 
   1     4   4U    0     4     4  0.00635    0.00635    3.433e-05 
   1     4   5U    0     4     4  0.00635    0.00635    1.000e-05 
                          
 THE ANALYSIS HAS NOT BEEN COMPLETED
