*Heading
** Job name: cpe4_node_surface_small_sliding Model name: Model-1
** Generated by: Abaqus/CAE 2016
*Preprint, echo=NO, model=NO, history=NO, contact=NO
**
** PARTS
**
*Part, name=plate
*Node
      1,        -250.,          75.
      2,        -250.,         125.
      3,       -1050.,         125.
      4,       -1050.,          75.
      5,         550.,          75.
      6,         550.,         125.
      7,        -250.,          85.
      8,        -250.,          95.
      9,        -250.,         105.
     10,        -250.,         115.
     11,  -278.571442,         125.
     12,  -307.142853,         125.
     13,  -335.714294,         125.
     14,  -364.285706,         125.
     15,  -392.857147,         125.
     16,  -421.428558,         125.
     17,        -450.,         125.
     18,  -478.571442,         125.
     19,  -507.142853,         125.
     20,  -535.714294,         125.
** ... 322 like lines cut
*Element, type=CPE4
  1,   1,   7, 127,  68
  2,   7,   8, 128, 127
  3,   8,   9, 129, 128
  4,   9,  10, 130, 129
  5,  10,   2,  11, 130
  6,  68, 127, 131,  67
  7, 127, 128, 132, 131
  8, 128, 129, 133, 132
  9, 129, 130, 134, 133
 10, 130,  11,  12, 134
 11,  67, 131, 135,  66
 12, 131, 132, 136, 135
 13, 132, 133, 137, 136
 14, 133, 134, 138, 137
 15, 134,  12,  13, 138
 16,  66, 135, 139,  65
 17, 135, 136, 140, 139
 18, 136, 137, 141, 140
 19, 137, 138, 142, 141
 20, 138,  13,  14, 142
** ... 260 like lines cut
*Nset, nset=Set-1, generate
   1,  342,    1
*Elset, elset=Set-1, generate
   1,  280,    1
*Nset, nset=Set-20, generate
   1,  342,    1
*Elset, elset=Set-20, generate
   1,  280,    1
** Section: Section-plate
*Solid Section, elset=Set-20, material=Material-plate
1600.,
*End Part
**  
*Part, name=rigid_press
*End Part
**  
**
** ASSEMBLY
**
*Assembly, name=Assembly
**  
*Instance, name=rigid_press-1, part=rigid_press
        150.,         325.,           0.
*Node
      1,        -400.,        -200.,           0.
*Nset, nset=rigid_press-1-RefPt_, internal
1, 
*Surface, type=SEGMENTS, name=Surf-3
START,        -550.,        -197.
 LINE,        -550.,         200.
 LINE,        -250.,         200.
 LINE,        -250.,        -197.
 CIRCL,        -253.,        -200.,        -253.,        -197.
 LINE,        -547.,        -200.
 CIRCL,        -550.,        -197.,        -547.,        -197.
*End Instance
**  
*Instance, name=plate-1, part=plate
*End Instance
**  
*Nset, nset=Set-3, instance=plate-1
 1,
*Nset, nset=Set-4, instance=plate-1
  1,  4,  5, 42, 43, 44, 45, 46, 47, 48, 49, 50, 51, 52, 53, 54
 55, 56, 57, 58, 59, 60, 61, 62, 63, 64, 65, 66, 67, 68, 69, 70
 71, 72, 73, 74, 75, 76, 77, 78, 79, 80, 81, 82, 83, 84, 85, 86
 87, 88, 89, 90, 91, 92, 93, 94, 95
*Elset, elset=Set-4, instance=plate-1
   1,   6,  11,  16,  21,  26,  31,  36,  41,  46,  51,  56,  61,  66,  71,  76
  81,  86,  91,  96, 101, 106, 111, 116, 121, 126, 131, 136, 145, 150, 155, 160
 165, 170, 175, 180, 185, 190, 195, 200, 205, 210, 215, 220, 225, 230, 235, 240
 245, 250, 255, 260, 265, 270, 275, 280
*Nset, nset=Set-5, instance=rigid_press-1
 1,
*Nset, nset=_PickedSet24, internal, instance=rigid_press-1
 1,
*Elset, elset=_s_Surf-1_S2, internal, instance=plate-1, generate
   5,  140,    5
*Elset, elset=_s_Surf-1_S4, internal, instance=plate-1, generate
 141,  276,    5
*Surface, type=ELEMENT, name=s_Surf-1
_s_Surf-1_S2, S2
_s_Surf-1_S4, S4
** Constraint: press_part
*Rigid Body, ref node=_PickedSet24, analytical surface=rigid_press-1.Surf-3
*End Assembly
** 
** MATERIALS
** 
*Material, name=Material-plate
*Elastic
70000., 0.3
*Plastic
 50.,          0.
220., 3.01071e-05
240., 3.41071e-05
260.,  0.00031343
280.,  0.00114718
300.,  0.00288029
320.,  0.00588232
340.,   0.0105421
360.,   0.0172647
380.,   0.0264687
400.,   0.0385852
420.,   0.0540561
440.,   0.0733333
460.,   0.0968779
480.,    0.125159
500.,    0.158655
520.,     0.19785
540.,    0.243237
560.,    0.295312
580.,    0.354582
** ... 6 like lines cut
** 
** INTERACTION PROPERTIES
** 
*Surface Interaction, name=IntProp-1
1.,
*Friction
0.,
*Surface Behavior, pressure-overclosure=HARD
** 
** INTERACTIONS
** 
** Interaction: Int-1
*Contact Pair, interaction=IntProp-1, small sliding, type=SURFACE TO SURFACE
s_Surf-1, rigid_press-1.Surf-3
** ----------------------------------------------------------------
** 
** STEP: My_Step
** 
*Step, name=My_Step, nlgeom=YES, inc=2000
*Static
1., 1., 1e-05, 1.
** 
** BOUNDARY CONDITIONS
** 
** Name: BC-2 Type: Symmetry/Antisymmetry/Encastre
*Boundary
Set-3, XSYMM
** Name: BC-3 Type: Symmetry/Antisymmetry/Encastre
*Boundary
Set-4, YSYMM
** Name: BC-4 Type: Displacement/Rotation
*Boundary
Set-5, 1, 1
Set-5, 2, 2, -25.
Set-5, 6, 6
** 
** OUTPUT REQUESTS
** 
*Restart, write, frequency=0
** 
** FIELD OUTPUT: F-Output-1
** 
*Output, field, variable=PRESELECT
** 
** HISTORY OUTPUT: H-Output-1
** 
*Output, history, variable=PRESELECT
*End Step
