1

   Abaqus 3DEXPERIENCE R2016x                                  Date 02-May-2018   Time 21:13:03
   For use at UNIVERSITAET BERN under license from Dassault Systemes or its subsidiary.

                                                                                 
                                                                                 
 STEP    1     INCREMENT     1     STEP TIME    0.00    


                        S T E P       1     S T A T I C   A N A L Y S I S


                                                                                          

     AUTOMATIC TIME CONTROL WITH -
          A SUGGESTED INITIAL TIME INCREMENT OF                 1.00    
          AND A TOTAL TIME PERIOD OF                            1.00    
          THE MINIMUM TIME INCREMENT ALLOWED IS                1.000E-05
          THE MAXIMUM TIME INCREMENT ALLOWED IS                 1.00    

     LINEAR EQUATION SOLVER TYPE         DIRECT SPARSE

 CONVERGENCE TOLERANCE PARAMETERS FOR FORCE    
     CRITERION FOR RESIDUAL FORCE     FOR A NONLINEAR PROBLEM          5.000E-03
     CRITERION FOR DISP.    CORRECTION IN A NONLINEAR PROBLEM          1.000E-02
     INITIAL VALUE OF TIME AVERAGE FORCE                               1.000E-02
     AVERAGE FORCE     IS TIME AVERAGE FORCE    
     ALTERNATE CRIT. FOR RESIDUAL FORCE     FOR A NONLINEAR PROBLEM    2.000E-02
     CRITERION FOR ZERO FORCE     RELATIVE TO TIME AVRG. FORCE         1.000E-05
     CRITERION FOR RESIDUAL FORCE     WHEN THERE IS ZERO FLUX          1.000E-05
     CRITERION FOR DISP.    CORRECTION WHEN THERE IS ZERO FLUX         1.000E-03
     CRITERION FOR RESIDUAL FORCE     FOR A LINEAR INCREMENT           1.000E-08
     FIELD CONVERSION RATIO                                             1.00    
     CRITERION FOR ZERO FORCE     REL. TO TIME AVRG. MAX. FORCE        1.000E-05
     CRITERION FOR ZERO DISP.    RELATIVE TO CHARACTERISTIC LENGTH     1.000E-08

 CONVERGENCE TOLERANCE PARAMETERS FOR MOMENT   
     CRITERION FOR RESIDUAL MOMENT    FOR A NONLINEAR PROBLEM          5.000E-03
     CRITERION FOR ROTATION CORRECTION IN A NONLINEAR PROBLEM          1.000E-02
     INITIAL VALUE OF TIME AVERAGE MOMENT                              1.000E-02
     AVERAGE MOMENT    IS TIME AVERAGE MOMENT   
     ALTERNATE CRIT. FOR RESIDUAL MOMENT    FOR A NONLINEAR PROBLEM    2.000E-02
     CRITERION FOR ZERO MOMENT    RELATIVE TO TIME AVRG. MOMENT        1.000E-05
     CRITERION FOR RESIDUAL MOMENT    WHEN THERE IS ZERO FLUX          1.000E-05
     CRITERION FOR ROTATION CORRECTION WHEN THERE IS ZERO FLUX         1.000E-03
     CRITERION FOR RESIDUAL MOMENT    FOR A LINEAR INCREMENT           1.000E-08
     FIELD CONVERSION RATIO                                             1.00    
     CRITERION FOR ZERO MOMENT    REL. TO TIME AVRG. MAX. MOMENT       1.000E-05

     VOLUMETRIC STRAIN COMPATIBILITY TOLERANCE FOR HYBRID SOLIDS       1.000E-05
     AXIAL STRAIN COMPATIBILITY TOLERANCE FOR HYBRID BEAMS             1.000E-05
     TRANS. SHEAR STRAIN COMPATIBILITY TOLERANCE FOR HYBRID BEAMS      1.000E-05
     SOFT CONTACT CONSTRAINT COMPATIBILITY TOLERANCE FOR P>P0          5.000E-03
     SOFT CONTACT CONSTRAINT COMPATIBILITY TOLERANCE FOR P=0.0         0.100    
     CONTACT FORCE ERROR TOLERANCE FOR CONVERT SDI=YES                 1.00    
     DISPLACEMENT COMPATIBILITY TOLERANCE FOR DCOUP ELEMENTS           1.000E-05
     ROTATION COMPATIBILITY TOLERANCE FOR DCOUP ELEMENTS               1.000E-05

 EQUILIBRIUM WILL BE CHECKED FOR SEVERE DISCONTINUITY ITERATIONS

 TIME INCREMENTATION CONTROL PARAMETERS:
     FIRST EQUILIBRIUM ITERATION FOR CONSECUTIVE DIVERGENCE CHECK              4
     EQUILIBRIUM ITERATION AT WHICH LOG. CONVERGENCE RATE CHECK BEGINS         8
     EQUILIBRIUM ITERATION AFTER WHICH ALTERNATE RESIDUAL IS USED              9
     MAXIMUM EQUILIBRIUM ITERATIONS ALLOWED                                   16
     EQUILIBRIUM ITERATION COUNT FOR CUT-BACK IN NEXT INCREMENT               10
     MAXIMUM EQUILIB. ITERS IN TWO INCREMENTS FOR TIME INCREMENT INCREASE      4
     MAXIMUM ITERATIONS FOR SEVERE DISCONTINUITIES                            50
     MAXIMUM CUT-BACKS ALLOWED IN AN INCREMENT                                 5
     MAXIMUM DISCON. ITERS IN TWO INCREMENTS FOR TIME INCREMENT INCREASE      50
     MAXIMUM CONTACT AUGMENTATIONS FOR *SURFACE BEHAVIOR,AUGMENTED LAGRANGE   50
     CUT-BACK FACTOR AFTER DIVERGENCE                                 0.2500    
     CUT-BACK FACTOR FOR TOO SLOW CONVERGENCE                         0.5000    
     CUT-BACK FACTOR AFTER TOO MANY EQUILIBRIUM ITERATIONS            0.7500    
     CUT-BACK FACTOR AFTER TOO MANY SEVERE DISCONTINUITY ITERATIONS   0.2500    
     CUT-BACK FACTOR AFTER PROBLEMS IN ELEMENT ASSEMBLY               0.2500    
     INCREASE FACTOR AFTER TWO INCREMENTS THAT CONVERGE QUICKLY        1.500    
     MAX. TIME INCREMENT INCREASE FACTOR ALLOWED                       1.500    
     MAX. TIME INCREMENT INCREASE FACTOR ALLOWED (DYNAMICS)            1.250    
     MAX. TIME INCREMENT INCREASE FACTOR ALLOWED (DIFFUSION)           2.000    
     MINIMUM TIME INCREMENT RATIO FOR EXTRAPOLATION TO OCCUR          0.1000    
     MAX. RATIO OF TIME INCREMENT TO STABILITY LIMIT                   1.000    
     FRACTION OF STABILITY LIMIT FOR NEW TIME INCREMENT               0.9500    
     TIME INCREMENT INCREASE FACTOR BEFORE A TIME POINT                1.000    
     GLOBAL STABILIZATION CONTROL IS NOT USED

          PRINT OF INCREMENT NUMBER, TIME, ETC., EVERY    1  INCREMENTS

     THE MAXIMUM NUMBER OF INCREMENTS IN THIS STEP IS                    2000

          LARGE DISPLACEMENT THEORY WILL BE USED

     LINEAR EXTRAPOLATION WILL BE USED

     CHARACTERISTIC ELEMENT LENGTH      19.3    

     DETAILS REGARDING ACTUAL SOLUTION WAVEFRONT REQUESTED

     DETAILED OUTPUT OF DIAGNOSTICS TO DATABASE REQUESTED

     PRINT OF INCREMENT NUMBER, TIME, ETC., TO THE MESSAGE FILE EVERY     1  INCREMENTS

     COLLECTING MODEL CONSTRAINT INFORMATION FOR OVERCONSTRAINT CHECKS

     COLLECTING STEP CONSTRAINT INFORMATION FOR OVERCONSTRAINT CHECKS


  INCREMENT     1 STARTS. ATTEMPT NUMBER  1, TIME INCREMENT   1.00    

  NUMBER OF EQUATIONS =       698     NUMBER OF FLOATING PT. OPERATIONS =  3.77E+05

     CHECK POINT   START OF SOLVER    

     CHECK POINT  END OF SOLVER       

       ELAPSED USER TIME (SEC)      =   0.0000    
       ELAPSED SYSTEM TIME (SEC)    =   0.0000    
       ELAPSED TOTAL CPU TIME (SEC) =   0.0000    
       ELAPSED WALLCLOCK TIME (SEC) =          0

 ***WARNING: THE STRAIN INCREMENT HAS EXCEEDED FIFTY TIMES THE STRAIN TO CAUSE 
             FIRST YIELD AT 300 POINTS

 ***WARNING: THE STRAIN INCREMENT IS SO LARGE THAT THE PROGRAM WILL NOT ATTEMPT 
             THE PLASTICITY CALCULATION AT 196 POINTS
 

 ***NOTE: MATERIAL CALCULATIONS FAILED TO CONVERGE OR WERE NOT ATTEMPTED AT ONE 
          OR MORE POINTS. CONVERGENCE IS JUDGED UNLIKELY.


  INCREMENT     1 STARTS. ATTEMPT NUMBER  2, TIME INCREMENT  0.250    

  NUMBER OF EQUATIONS =       698     NUMBER OF FLOATING PT. OPERATIONS =  3.77E+05

     CHECK POINT   START OF SOLVER    

     CHECK POINT  END OF SOLVER       

       ELAPSED USER TIME (SEC)      =   0.0000    
       ELAPSED SYSTEM TIME (SEC)    =   0.0000    
       ELAPSED TOTAL CPU TIME (SEC) =   0.0000    
       ELAPSED WALLCLOCK TIME (SEC) =          0

 ***WARNING: THE STRAIN INCREMENT HAS EXCEEDED FIFTY TIMES THE STRAIN TO CAUSE 
             FIRST YIELD AT 246 POINTS

               CONVERGENCE CHECKS FOR EQUILIBRIUM ITERATION     1

   MAX. PENETRATION ERROR -14.2109E-15  AT NODE PLATE-1.12 OF CONTACT PAIR 
   (ASSEMBLY_S_SURF-1,ASSEMBLY_RIGID_PRESS-1_SURF-3)
   MAX. CONTACT FORCE ERROR -1.51825E-09 AT NODE PLATE-1.12 OF CONTACT PAIR 
   (ASSEMBLY_S_SURF-1,ASSEMBLY_RIGID_PRESS-1_SURF-3)
          THE CONTACT CONSTRAINTS HAVE CONVERGED.

 AVERAGE FORCE                      1.680E+07   TIME AVG. FORCE       1.680E+07
 LARGEST RESIDUAL FORCE            -2.341E+08   AT NODE         15   DOF  2
   INSTANCE: PLATE-1                                                                         
 LARGEST INCREMENT OF DISP.         -8.90       AT NODE         63   DOF  1
   INSTANCE: PLATE-1                                                                         
 LARGEST CORRECTION TO DISP.        -8.90       AT NODE         63   DOF  1
   INSTANCE: PLATE-1                                                                         
          FORCE     EQUILIBRIUM NOT ACHIEVED WITHIN TOLERANCE.

 AVERAGE MOMENT                     6.754E+09   TIME AVG. MOMENT      6.754E+09
 ALL MOMENT    RESIDUALS ARE ZERO
 LARGEST INCREMENT OF ROTATION     -1.430E-32   AT NODE          1   DOF  6
   INSTANCE: RIGID_PRESS-1                                                                   
 LARGEST CORRECTION TO ROTATION    -1.430E-32   AT NODE          1   DOF  6
   INSTANCE: RIGID_PRESS-1                                                                   
          THE MOMENT    EQUILIBRIUM RESPONSE WAS LINEAR IN THIS INCREMENT

  NUMBER OF EQUATIONS =       698     NUMBER OF FLOATING PT. OPERATIONS =  3.77E+05

     CHECK POINT   START OF SOLVER    

     CHECK POINT  END OF SOLVER       

       ELAPSED USER TIME (SEC)      =   0.0000    
       ELAPSED SYSTEM TIME (SEC)    =   0.0000    
       ELAPSED TOTAL CPU TIME (SEC) =   0.0000    
       ELAPSED WALLCLOCK TIME (SEC) =          0
 

 ***WARNING: THE SYSTEM MATRIX HAS 7 NEGATIVE EIGENVALUES.

     NEGATIVE EIGENVALUES MEAN THAT THE SYSTEM MATRIX IS NOT 
     POSITIVE DEFINITE:
     FOR EXAMPLE, A BIFURCATION (BUCKLING) LOAD MAY HAVE BEEN EXCEEDED.

 ***WARNING: THE STRAIN INCREMENT HAS EXCEEDED FIFTY TIMES THE STRAIN TO CAUSE 
             FIRST YIELD AT 243 POINTS

                    1 SEVERE DISCONTINUITIES OCCURRED DURING THIS ITERATION.
                    1 POINTS CHANGED FROM CLOSED TO OPEN

               CONVERGENCE CHECKS FOR SEVERE DISCONTINUITY ITERATION     1

   MAX. PENETRATION ERROR 14.2109E-15  AT NODE PLATE-1.12 OF CONTACT PAIR 
   (ASSEMBLY_S_SURF-1,ASSEMBLY_RIGID_PRESS-1_SURF-3)
   MAX. CONTACT FORCE ERROR -17.2634E+06  AT NODE PLATE-1.123 OF CONTACT PAIR 
   (ASSEMBLY_S_SURF-1,ASSEMBLY_RIGID_PRESS-1_SURF-3)
          THE ESTIMATED CONTACT FORCE ERROR IS OUTSIDE OF CONVERGENCE TOLERANCES.

 AVERAGE FORCE                      6.712E+06   TIME AVG. FORCE       6.712E+06
 LARGEST RESIDUAL FORCE            -2.843E+08   AT NODE        251   DOF  2
   INSTANCE: PLATE-1                                                                         
 LARGEST INCREMENT OF DISP.          19.6       AT NODE         73   DOF  1
   INSTANCE: PLATE-1                                                                         
 LARGEST CORRECTION TO DISP.        -13.0       AT NODE         65   DOF  1
   INSTANCE: PLATE-1                                                                         
          FORCE     EQUILIBRIUM NOT ACHIEVED WITHIN TOLERANCE.

 AVERAGE MOMENT                     1.053E+09   TIME AVG. MOMENT      1.053E+09
 ALL MOMENT    RESIDUALS ARE ZERO
 LARGEST INCREMENT OF ROTATION     -1.826E-27   AT NODE          1   DOF  6
   INSTANCE: RIGID_PRESS-1                                                                   
 LARGEST CORRECTION TO ROTATION    -1.826E-27   AT NODE          1   DOF  6
   INSTANCE: RIGID_PRESS-1                                                                   
          THE MOMENT    EQUILIBRIUM EQUATIONS HAVE CONVERGED

  NUMBER OF EQUATIONS =       697     NUMBER OF FLOATING PT. OPERATIONS =  3.74E+05

     CHECK POINT   START OF SOLVER    

     CHECK POINT  END OF SOLVER       

       ELAPSED USER TIME (SEC)      =   0.0000    
       ELAPSED SYSTEM TIME (SEC)    =   0.0000    
       ELAPSED TOTAL CPU TIME (SEC) =   0.0000    
       ELAPSED WALLCLOCK TIME (SEC) =          0
 

 ***WARNING: THE SYSTEM MATRIX HAS 11 NEGATIVE EIGENVALUES.
             EXPLANATIONS ARE SUGGESTED AFTER THE FIRST OCCURRENCE OF THIS MESSAGE.

 ***WARNING: THE STRAIN INCREMENT HAS EXCEEDED FIFTY TIMES THE STRAIN TO CAUSE 
             FIRST YIELD AT 287 POINTS

 ***WARNING: THE STRAIN INCREMENT IS SO LARGE THAT THE PROGRAM WILL NOT ATTEMPT 
             THE PLASTICITY CALCULATION AT 10 POINTS
 

 ***NOTE: MATERIAL CALCULATIONS FAILED TO CONVERGE OR WERE NOT ATTEMPTED AT ONE 
          OR MORE POINTS. CONVERGENCE IS JUDGED UNLIKELY.


  INCREMENT     1 STARTS. ATTEMPT NUMBER  3, TIME INCREMENT  6.250E-02

  NUMBER OF EQUATIONS =       698     NUMBER OF FLOATING PT. OPERATIONS =  3.77E+05

     CHECK POINT   START OF SOLVER    

     CHECK POINT  END OF SOLVER       

       ELAPSED USER TIME (SEC)      =   0.0000    
       ELAPSED SYSTEM TIME (SEC)    =   0.0000    
       ELAPSED TOTAL CPU TIME (SEC) =   0.0000    
       ELAPSED WALLCLOCK TIME (SEC) =          0

 ***WARNING: THE STRAIN INCREMENT HAS EXCEEDED FIFTY TIMES THE STRAIN TO CAUSE 
             FIRST YIELD AT 168 POINTS

               CONVERGENCE CHECKS FOR EQUILIBRIUM ITERATION     1

   MAX. PENETRATION ERROR 14.2109E-15  AT NODE PLATE-1.12 OF CONTACT PAIR 
   (ASSEMBLY_S_SURF-1,ASSEMBLY_RIGID_PRESS-1_SURF-3)
   MAX. CONTACT FORCE ERROR -1.51825E-09 AT NODE PLATE-1.125 OF CONTACT PAIR 
   (ASSEMBLY_S_SURF-1,ASSEMBLY_RIGID_PRESS-1_SURF-3)
          THE CONTACT CONSTRAINTS HAVE CONVERGED.

 AVERAGE FORCE                      4.234E+06   TIME AVG. FORCE       4.234E+06
 LARGEST RESIDUAL FORCE            -5.070E+07   AT NODE         15   DOF  2
   INSTANCE: PLATE-1                                                                         
 LARGEST INCREMENT OF DISP.         -2.22       AT NODE         63   DOF  1
   INSTANCE: PLATE-1                                                                         
 LARGEST CORRECTION TO DISP.        -2.22       AT NODE         63   DOF  1
   INSTANCE: PLATE-1                                                                         
          FORCE     EQUILIBRIUM NOT ACHIEVED WITHIN TOLERANCE.

 AVERAGE MOMENT                     1.629E+09   TIME AVG. MOMENT      1.629E+09
 ALL MOMENT    RESIDUALS ARE ZERO
 LARGEST INCREMENT OF ROTATION     -3.575E-33   AT NODE          1   DOF  6
   INSTANCE: RIGID_PRESS-1                                                                   
 LARGEST CORRECTION TO ROTATION    -3.575E-33   AT NODE          1   DOF  6
   INSTANCE: RIGID_PRESS-1                                                                   
          THE MOMENT    EQUILIBRIUM RESPONSE WAS LINEAR IN THIS INCREMENT

  NUMBER OF EQUATIONS =       698     NUMBER OF FLOATING PT. OPERATIONS =  3.77E+05

     CHECK POINT   START OF SOLVER    

     CHECK POINT  END OF SOLVER       

       ELAPSED USER TIME (SEC)      =  1.00000E-02
       ELAPSED SYSTEM TIME (SEC)    =  1.00000E-02
       ELAPSED TOTAL CPU TIME (SEC) =  2.00000E-02
       ELAPSED WALLCLOCK TIME (SEC) =          0
 

 ***WARNING: THE SYSTEM MATRIX HAS 5 NEGATIVE EIGENVALUES.
             EXPLANATIONS ARE SUGGESTED AFTER THE FIRST OCCURRENCE OF THIS MESSAGE.

 ***WARNING: THE STRAIN INCREMENT HAS EXCEEDED FIFTY TIMES THE STRAIN TO CAUSE 
             FIRST YIELD AT 99 POINTS

               CONVERGENCE CHECKS FOR EQUILIBRIUM ITERATION     2

   MAX. PENETRATION ERROR 14.2109E-15  AT NODE PLATE-1.13 OF CONTACT PAIR 
   (ASSEMBLY_S_SURF-1,ASSEMBLY_RIGID_PRESS-1_SURF-3)
   MAX. CONTACT FORCE ERROR 1.51825E-09 AT NODE PLATE-1.13 OF CONTACT PAIR 
   (ASSEMBLY_S_SURF-1,ASSEMBLY_RIGID_PRESS-1_SURF-3)
          THE CONTACT CONSTRAINTS HAVE CONVERGED.

 AVERAGE FORCE                      2.453E+06   TIME AVG. FORCE       2.453E+06
 LARGEST RESIDUAL FORCE            -1.265E+07   AT NODE         12   DOF  1
   INSTANCE: PLATE-1                                                                         
 LARGEST INCREMENT OF DISP.          3.37       AT NODE         73   DOF  1
   INSTANCE: PLATE-1                                                                         
 LARGEST CORRECTION TO DISP.        -1.47       AT NODE         65   DOF  1
   INSTANCE: PLATE-1                                                                         
          FORCE     EQUILIBRIUM NOT ACHIEVED WITHIN TOLERANCE.

 AVERAGE MOMENT                     5.465E+08   TIME AVG. MOMENT      5.465E+08
 ALL MOMENT    RESIDUALS ARE ZERO
 LARGEST INCREMENT OF ROTATION     -5.135E-28   AT NODE          1   DOF  6
   INSTANCE: RIGID_PRESS-1                                                                   
 LARGEST CORRECTION TO ROTATION    -5.135E-28   AT NODE          1   DOF  6
   INSTANCE: RIGID_PRESS-1                                                                   
          THE MOMENT    EQUILIBRIUM EQUATIONS HAVE CONVERGED

  NUMBER OF EQUATIONS =       698     NUMBER OF FLOATING PT. OPERATIONS =  3.77E+05

     CHECK POINT   START OF SOLVER    

     CHECK POINT  END OF SOLVER       

       ELAPSED USER TIME (SEC)      =  1.00000E-02
       ELAPSED SYSTEM TIME (SEC)    =   0.0000    
       ELAPSED TOTAL CPU TIME (SEC) =  1.00000E-02
       ELAPSED WALLCLOCK TIME (SEC) =          0
 

 ***WARNING: THE SYSTEM MATRIX HAS 4 NEGATIVE EIGENVALUES.
             EXPLANATIONS ARE SUGGESTED AFTER THE FIRST OCCURRENCE OF THIS MESSAGE.

 ***WARNING: THE STRAIN INCREMENT HAS EXCEEDED FIFTY TIMES THE STRAIN TO CAUSE 
             FIRST YIELD AT 145 POINTS

               CONVERGENCE CHECKS FOR EQUILIBRIUM ITERATION     3

   MAX. PENETRATION ERROR -14.2109E-15  AT NODE PLATE-1.12 OF CONTACT PAIR 
   (ASSEMBLY_S_SURF-1,ASSEMBLY_RIGID_PRESS-1_SURF-3)
   MAX. CONTACT FORCE ERROR -1.51825E-09 AT NODE PLATE-1.13 OF CONTACT PAIR 
   (ASSEMBLY_S_SURF-1,ASSEMBLY_RIGID_PRESS-1_SURF-3)
          THE CONTACT CONSTRAINTS HAVE CONVERGED.

 AVERAGE FORCE                      2.744E+06   TIME AVG. FORCE       2.744E+06
 LARGEST RESIDUAL FORCE            -2.663E+07   AT NODE          2   DOF  1
   INSTANCE: PLATE-1                                                                         
 LARGEST INCREMENT OF DISP.         -3.75       AT NODE        125   DOF  1
   INSTANCE: PLATE-1                                                                         
 LARGEST CORRECTION TO DISP.        -4.13       AT NODE        125   DOF  1
   INSTANCE: PLATE-1                                                                         
          FORCE     EQUILIBRIUM NOT ACHIEVED WITHIN TOLERANCE.

 AVERAGE MOMENT                     5.414E+08   TIME AVG. MOMENT      5.414E+08
 ALL MOMENT    RESIDUALS ARE ZERO
 LARGEST INCREMENT OF ROTATION     -1.824E-27   AT NODE          1   DOF  6
   INSTANCE: RIGID_PRESS-1                                                                   
 LARGEST CORRECTION TO ROTATION    -1.311E-27   AT NODE          1   DOF  6
   INSTANCE: RIGID_PRESS-1                                                                   
          THE MOMENT    EQUILIBRIUM EQUATIONS HAVE CONVERGED

  NUMBER OF EQUATIONS =       698     NUMBER OF FLOATING PT. OPERATIONS =  3.77E+05

     CHECK POINT   START OF SOLVER    

     CHECK POINT  END OF SOLVER       

       ELAPSED USER TIME (SEC)      =  1.00000E-02
       ELAPSED SYSTEM TIME (SEC)    =   0.0000    
       ELAPSED TOTAL CPU TIME (SEC) =  1.00000E-02
       ELAPSED WALLCLOCK TIME (SEC) =          0
 

 ***WARNING: THE SYSTEM MATRIX HAS 6 NEGATIVE EIGENVALUES.
             EXPLANATIONS ARE SUGGESTED AFTER THE FIRST OCCURRENCE OF THIS MESSAGE.

 ***WARNING: THE STRAIN INCREMENT HAS EXCEEDED FIFTY TIMES THE STRAIN TO CAUSE 
             FIRST YIELD AT 160 POINTS

               CONVERGENCE CHECKS FOR EQUILIBRIUM ITERATION     4

   MAX. PENETRATION ERROR -14.2109E-15  AT NODE PLATE-1.12 OF CONTACT PAIR 
   (ASSEMBLY_S_SURF-1,ASSEMBLY_RIGID_PRESS-1_SURF-3)
   MAX. CONTACT FORCE ERROR 1.51825E-09 AT NODE PLATE-1.125 OF CONTACT PAIR 
   (ASSEMBLY_S_SURF-1,ASSEMBLY_RIGID_PRESS-1_SURF-3)
          THE CONTACT CONSTRAINTS HAVE CONVERGED.

 AVERAGE FORCE                      2.799E+06   TIME AVG. FORCE       2.799E+06
 LARGEST RESIDUAL FORCE             1.424E+08   AT NODE        142   DOF  2
   INSTANCE: PLATE-1                                                                         
 LARGEST INCREMENT OF DISP.          12.0       AT NODE         15   DOF  1
   INSTANCE: PLATE-1                                                                         
 LARGEST CORRECTION TO DISP.         10.1       AT NODE         15   DOF  1
   INSTANCE: PLATE-1                                                                         
          FORCE     EQUILIBRIUM NOT ACHIEVED WITHIN TOLERANCE.

 AVERAGE MOMENT                     4.152E+08   TIME AVG. MOMENT      4.152E+08
 ALL MOMENT    RESIDUALS ARE ZERO
 LARGEST INCREMENT OF ROTATION      2.827E-27   AT NODE          1   DOF  6
   INSTANCE: RIGID_PRESS-1                                                                   
 LARGEST CORRECTION TO ROTATION     4.651E-27   AT NODE          1   DOF  6
   INSTANCE: RIGID_PRESS-1                                                                   
          THE MOMENT    EQUILIBRIUM EQUATIONS HAVE CONVERGED
 

 ***NOTE: THE SOLUTION APPEARS TO BE DIVERGING. CONVERGENCE IS JUDGED UNLIKELY.


  INCREMENT     1 STARTS. ATTEMPT NUMBER  4, TIME INCREMENT  1.562E-02

  NUMBER OF EQUATIONS =       698     NUMBER OF FLOATING PT. OPERATIONS =  3.77E+05

     CHECK POINT   START OF SOLVER    

     CHECK POINT  END OF SOLVER       

       ELAPSED USER TIME (SEC)      =  1.00000E-02
       ELAPSED SYSTEM TIME (SEC)    =   0.0000    
       ELAPSED TOTAL CPU TIME (SEC) =  1.00000E-02
       ELAPSED WALLCLOCK TIME (SEC) =          0

               CONVERGENCE CHECKS FOR EQUILIBRIUM ITERATION     1

   MAX. PENETRATION ERROR 14.2109E-15  AT NODE PLATE-1.12 OF CONTACT PAIR 
   (ASSEMBLY_S_SURF-1,ASSEMBLY_RIGID_PRESS-1_SURF-3)
   MAX. CONTACT FORCE ERROR 1.51825E-09 AT NODE PLATE-1.124 OF CONTACT PAIR 
   (ASSEMBLY_S_SURF-1,ASSEMBLY_RIGID_PRESS-1_SURF-3)
          THE CONTACT CONSTRAINTS HAVE CONVERGED.

 AVERAGE FORCE                      1.257E+06   TIME AVG. FORCE       1.257E+06
 LARGEST RESIDUAL FORCE            -6.649E+06   AT NODE          2   DOF  2
   INSTANCE: PLATE-1                                                                         
 LARGEST INCREMENT OF DISP.        -0.556       AT NODE         63   DOF  1
   INSTANCE: PLATE-1                                                                         
 LARGEST CORRECTION TO DISP.       -0.556       AT NODE         63   DOF  1
   INSTANCE: PLATE-1                                                                         
          FORCE     EQUILIBRIUM NOT ACHIEVED WITHIN TOLERANCE.

 AVERAGE MOMENT                     4.036E+08   TIME AVG. MOMENT      4.036E+08
 ALL MOMENT    RESIDUALS ARE ZERO
 LARGEST INCREMENT OF ROTATION     -8.937E-34   AT NODE          1   DOF  6
   INSTANCE: RIGID_PRESS-1                                                                   
 LARGEST CORRECTION TO ROTATION    -8.937E-34   AT NODE          1   DOF  6
   INSTANCE: RIGID_PRESS-1                                                                   
          THE MOMENT    EQUILIBRIUM RESPONSE WAS LINEAR IN THIS INCREMENT

  NUMBER OF EQUATIONS =       698     NUMBER OF FLOATING PT. OPERATIONS =  3.77E+05

     CHECK POINT   START OF SOLVER    

     CHECK POINT  END OF SOLVER       

       ELAPSED USER TIME (SEC)      =  1.00000E-02
       ELAPSED SYSTEM TIME (SEC)    =   0.0000    
       ELAPSED TOTAL CPU TIME (SEC) =  1.00000E-02
       ELAPSED WALLCLOCK TIME (SEC) =          0
 

 ***WARNING: THE SYSTEM MATRIX HAS 1 NEGATIVE EIGENVALUES.
             EXPLANATIONS ARE SUGGESTED AFTER THE FIRST OCCURRENCE OF THIS MESSAGE.

               CONVERGENCE CHECKS FOR EQUILIBRIUM ITERATION     2

   MAX. PENETRATION ERROR -14.2109E-15  AT NODE PLATE-1.12 OF CONTACT PAIR 
   (ASSEMBLY_S_SURF-1,ASSEMBLY_RIGID_PRESS-1_SURF-3)
   MAX. CONTACT FORCE ERROR 1.51825E-09 AT NODE PLATE-1.125 OF CONTACT PAIR 
   (ASSEMBLY_S_SURF-1,ASSEMBLY_RIGID_PRESS-1_SURF-3)
          THE CONTACT CONSTRAINTS HAVE CONVERGED.

 AVERAGE FORCE                      5.611E+05   TIME AVG. FORCE       5.611E+05
 LARGEST RESIDUAL FORCE            -8.755E+06   AT NODE        123   DOF  1
   INSTANCE: PLATE-1                                                                         
 LARGEST INCREMENT OF DISP.         -1.46       AT NODE         62   DOF  1
   INSTANCE: PLATE-1                                                                         
 LARGEST CORRECTION TO DISP.        -1.05       AT NODE         15   DOF  1
   INSTANCE: PLATE-1                                                                         
          FORCE     EQUILIBRIUM NOT ACHIEVED WITHIN TOLERANCE.

 AVERAGE MOMENT                     1.342E+08   TIME AVG. MOMENT      1.342E+08
 ALL MOMENT    RESIDUALS ARE ZERO
 LARGEST INCREMENT OF ROTATION     -3.510E-28   AT NODE          1   DOF  6
   INSTANCE: RIGID_PRESS-1                                                                   
 LARGEST CORRECTION TO ROTATION    -3.510E-28   AT NODE          1   DOF  6
   INSTANCE: RIGID_PRESS-1                                                                   
          THE MOMENT    EQUILIBRIUM EQUATIONS HAVE CONVERGED

  NUMBER OF EQUATIONS =       698     NUMBER OF FLOATING PT. OPERATIONS =  3.77E+05

     CHECK POINT   START OF SOLVER    

     CHECK POINT  END OF SOLVER       

       ELAPSED USER TIME (SEC)      =   0.0000    
       ELAPSED SYSTEM TIME (SEC)    =   0.0000    
       ELAPSED TOTAL CPU TIME (SEC) =   0.0000    
       ELAPSED WALLCLOCK TIME (SEC) =          0
 

 ***WARNING: THE SYSTEM MATRIX HAS 1 NEGATIVE EIGENVALUES.
             EXPLANATIONS ARE SUGGESTED AFTER THE FIRST OCCURRENCE OF THIS MESSAGE.

               CONVERGENCE CHECKS FOR EQUILIBRIUM ITERATION     3

   MAX. PENETRATION ERROR 14.2109E-15  AT NODE PLATE-1.12 OF CONTACT PAIR 
   (ASSEMBLY_S_SURF-1,ASSEMBLY_RIGID_PRESS-1_SURF-3)
   MAX. CONTACT FORCE ERROR -1.51825E-09 AT NODE PLATE-1.124 OF CONTACT PAIR 
   (ASSEMBLY_S_SURF-1,ASSEMBLY_RIGID_PRESS-1_SURF-3)
          THE CONTACT CONSTRAINTS HAVE CONVERGED.

 AVERAGE FORCE                      1.677E+06   TIME AVG. FORCE       1.677E+06
 LARGEST RESIDUAL FORCE            -2.161E+07   AT NODE        122   DOF  2
   INSTANCE: PLATE-1                                                                         
 LARGEST INCREMENT OF DISP.         0.823       AT NODE         14   DOF  1
   INSTANCE: PLATE-1                                                                         
 LARGEST CORRECTION TO DISP.         2.22       AT NODE         14   DOF  1
   INSTANCE: PLATE-1                                                                         
          FORCE     EQUILIBRIUM NOT ACHIEVED WITHIN TOLERANCE.

 AVERAGE MOMENT                     4.106E+08   TIME AVG. MOMENT      4.106E+08
 ALL MOMENT    RESIDUALS ARE ZERO
 LARGEST INCREMENT OF ROTATION      2.217E-28   AT NODE          1   DOF  6
   INSTANCE: RIGID_PRESS-1                                                                   
 LARGEST CORRECTION TO ROTATION     5.727E-28   AT NODE          1   DOF  6
   INSTANCE: RIGID_PRESS-1                                                                   
          THE MOMENT    EQUILIBRIUM EQUATIONS HAVE CONVERGED

  NUMBER OF EQUATIONS =       698     NUMBER OF FLOATING PT. OPERATIONS =  3.77E+05

     CHECK POINT   START OF SOLVER    

     CHECK POINT  END OF SOLVER       

       ELAPSED USER TIME (SEC)      =   0.0000    
       ELAPSED SYSTEM TIME (SEC)    =   0.0000    
       ELAPSED TOTAL CPU TIME (SEC) =   0.0000    
       ELAPSED WALLCLOCK TIME (SEC) =          0
 

 ***WARNING: THE SYSTEM MATRIX HAS 2 NEGATIVE EIGENVALUES.
             EXPLANATIONS ARE SUGGESTED AFTER THE FIRST OCCURRENCE OF THIS MESSAGE.

 ***WARNING: THE STRAIN INCREMENT HAS EXCEEDED FIFTY TIMES THE STRAIN TO CAUSE 
             FIRST YIELD AT 22 POINTS

                    2 SEVERE DISCONTINUITIES OCCURRED DURING THIS ITERATION.
                    2 POINTS CHANGED FROM CLOSED TO OPEN

               CONVERGENCE CHECKS FOR SEVERE DISCONTINUITY ITERATION     1

   MAX. PENETRATION ERROR -14.2109E-15  AT NODE PLATE-1.12 OF CONTACT PAIR 
   (ASSEMBLY_S_SURF-1,ASSEMBLY_RIGID_PRESS-1_SURF-3)
   MAX. CONTACT FORCE ERROR -6.73380E+06 AT NODE PLATE-1.122 OF CONTACT PAIR 
   (ASSEMBLY_S_SURF-1,ASSEMBLY_RIGID_PRESS-1_SURF-3)
          THE ESTIMATED CONTACT FORCE ERROR IS OUTSIDE OF CONVERGENCE TOLERANCES.

 AVERAGE FORCE                      2.133E+06   TIME AVG. FORCE       2.133E+06
 LARGEST RESIDUAL FORCE             2.302E+07   AT NODE        123   DOF  1
   INSTANCE: PLATE-1                                                                         
 LARGEST INCREMENT OF DISP.          3.57       AT NODE         14   DOF  1
   INSTANCE: PLATE-1                                                                         
 LARGEST CORRECTION TO DISP.         2.75       AT NODE         14   DOF  1
   INSTANCE: PLATE-1                                                                         
          FORCE     EQUILIBRIUM NOT ACHIEVED WITHIN TOLERANCE.

 AVERAGE MOMENT                     3.726E+08   TIME AVG. MOMENT      3.726E+08
 ALL MOMENT    RESIDUALS ARE ZERO
 LARGEST INCREMENT OF ROTATION     -6.608E-28   AT NODE          1   DOF  6
   INSTANCE: RIGID_PRESS-1                                                                   
 LARGEST CORRECTION TO ROTATION    -8.824E-28   AT NODE          1   DOF  6
   INSTANCE: RIGID_PRESS-1                                                                   
          THE MOMENT    EQUILIBRIUM EQUATIONS HAVE CONVERGED

  NUMBER OF EQUATIONS =       696     NUMBER OF FLOATING PT. OPERATIONS =  3.70E+05

     CHECK POINT   START OF SOLVER    

     CHECK POINT  END OF SOLVER       

       ELAPSED USER TIME (SEC)      =   0.0000    
       ELAPSED SYSTEM TIME (SEC)    =   0.0000    
       ELAPSED TOTAL CPU TIME (SEC) =   0.0000    
       ELAPSED WALLCLOCK TIME (SEC) =          0
 

 ***WARNING: THE SYSTEM MATRIX HAS 3 NEGATIVE EIGENVALUES.
             EXPLANATIONS ARE SUGGESTED AFTER THE FIRST OCCURRENCE OF THIS MESSAGE.

 ***WARNING: THE STRAIN INCREMENT HAS EXCEEDED FIFTY TIMES THE STRAIN TO CAUSE 
             FIRST YIELD AT 108 POINTS

 ***WARNING: THE STRAIN INCREMENT IS SO LARGE THAT THE PROGRAM WILL NOT ATTEMPT 
             THE PLASTICITY CALCULATION AT 4 POINTS
 

 ***NOTE: MATERIAL CALCULATIONS FAILED TO CONVERGE OR WERE NOT ATTEMPTED AT ONE 
          OR MORE POINTS. CONVERGENCE IS JUDGED UNLIKELY.


  INCREMENT     1 STARTS. ATTEMPT NUMBER  5, TIME INCREMENT  3.906E-03

  NUMBER OF EQUATIONS =       698     NUMBER OF FLOATING PT. OPERATIONS =  3.77E+05

     CHECK POINT   START OF SOLVER    

     CHECK POINT  END OF SOLVER       

       ELAPSED USER TIME (SEC)      =  1.00000E-02
       ELAPSED SYSTEM TIME (SEC)    =   0.0000    
       ELAPSED TOTAL CPU TIME (SEC) =  1.00000E-02
       ELAPSED WALLCLOCK TIME (SEC) =          0

               CONVERGENCE CHECKS FOR EQUILIBRIUM ITERATION     1

   MAX. PENETRATION ERROR 14.2109E-15  AT NODE PLATE-1.12 OF CONTACT PAIR 
   (ASSEMBLY_S_SURF-1,ASSEMBLY_RIGID_PRESS-1_SURF-3)
   MAX. CONTACT FORCE ERROR 1.51825E-09 AT NODE PLATE-1.12 OF CONTACT PAIR 
   (ASSEMBLY_S_SURF-1,ASSEMBLY_RIGID_PRESS-1_SURF-3)
          THE CONTACT CONSTRAINTS HAVE CONVERGED.

 AVERAGE FORCE                      3.687E+05   TIME AVG. FORCE       3.687E+05
 LARGEST RESIDUAL FORCE            -2.688E+04   AT NODE         15   DOF  2
   INSTANCE: PLATE-1                                                                         
 LARGEST INCREMENT OF DISP.        -0.139       AT NODE         63   DOF  1
   INSTANCE: PLATE-1                                                                         
 LARGEST CORRECTION TO DISP.       -0.139       AT NODE         63   DOF  1
   INSTANCE: PLATE-1                                                                         
          FORCE     EQUILIBRIUM NOT ACHIEVED WITHIN TOLERANCE.

 AVERAGE MOMENT                     1.007E+08   TIME AVG. MOMENT      1.007E+08
 ALL MOMENT    RESIDUALS ARE ZERO
 LARGEST INCREMENT OF ROTATION     -2.234E-34   AT NODE          1   DOF  6
   INSTANCE: RIGID_PRESS-1                                                                   
 LARGEST CORRECTION TO ROTATION    -2.234E-34   AT NODE          1   DOF  6
   INSTANCE: RIGID_PRESS-1                                                                   
          THE MOMENT    EQUILIBRIUM RESPONSE WAS LINEAR IN THIS INCREMENT

  NUMBER OF EQUATIONS =       698     NUMBER OF FLOATING PT. OPERATIONS =  3.77E+05

     CHECK POINT   START OF SOLVER    

     CHECK POINT  END OF SOLVER       

       ELAPSED USER TIME (SEC)      =  1.00000E-02
       ELAPSED SYSTEM TIME (SEC)    =   0.0000    
       ELAPSED TOTAL CPU TIME (SEC) =  1.00000E-02
       ELAPSED WALLCLOCK TIME (SEC) =          0

               CONVERGENCE CHECKS FOR EQUILIBRIUM ITERATION     2

   MAX. PENETRATION ERROR 14.2109E-15  AT NODE PLATE-1.122 OF CONTACT PAIR 
   (ASSEMBLY_S_SURF-1,ASSEMBLY_RIGID_PRESS-1_SURF-3)
   MAX. CONTACT FORCE ERROR 759.127E-12   AT NODE PLATE-1.122 OF CONTACT PAIR 
   (ASSEMBLY_S_SURF-1,ASSEMBLY_RIGID_PRESS-1_SURF-3)
          THE CONTACT CONSTRAINTS HAVE CONVERGED.

 AVERAGE FORCE                      3.677E+05   TIME AVG. FORCE       3.677E+05
 LARGEST RESIDUAL FORCE            -3.902E+03   AT NODE        123   DOF  1
   INSTANCE: PLATE-1                                                                         
 LARGEST INCREMENT OF DISP.         0.140       AT NODE         74   DOF  1
   INSTANCE: PLATE-1                                                                         
 LARGEST CORRECTION TO DISP.        1.239E-03   AT NODE        120   DOF  1
   INSTANCE: PLATE-1                                                                         
          FORCE     EQUILIBRIUM NOT ACHIEVED WITHIN TOLERANCE.

 AVERAGE MOMENT                     1.001E+08   TIME AVG. MOMENT      1.001E+08
 ALL MOMENT    RESIDUALS ARE ZERO
 LARGEST INCREMENT OF ROTATION     -1.639E-31   AT NODE          1   DOF  6
   INSTANCE: RIGID_PRESS-1                                                                   
 LARGEST CORRECTION TO ROTATION    -1.637E-31   AT NODE          1   DOF  6
   INSTANCE: RIGID_PRESS-1                                                                   
          THE MOMENT    EQUILIBRIUM EQUATIONS HAVE CONVERGED

  NUMBER OF EQUATIONS =       698     NUMBER OF FLOATING PT. OPERATIONS =  3.77E+05

     CHECK POINT   START OF SOLVER    

     CHECK POINT  END OF SOLVER       

       ELAPSED USER TIME (SEC)      =  1.00000E-02
       ELAPSED SYSTEM TIME (SEC)    =   0.0000    
       ELAPSED TOTAL CPU TIME (SEC) =  1.00000E-02
       ELAPSED WALLCLOCK TIME (SEC) =          0

               CONVERGENCE CHECKS FOR EQUILIBRIUM ITERATION     3

   MAX. PENETRATION ERROR -14.2109E-15  AT NODE PLATE-1.122 OF CONTACT PAIR 
   (ASSEMBLY_S_SURF-1,ASSEMBLY_RIGID_PRESS-1_SURF-3)
   MAX. CONTACT FORCE ERROR -759.127E-12   AT NODE PLATE-1.122 OF CONTACT PAIR 
   (ASSEMBLY_S_SURF-1,ASSEMBLY_RIGID_PRESS-1_SURF-3)
          THE CONTACT CONSTRAINTS HAVE CONVERGED.

 AVERAGE FORCE                      3.678E+05   TIME AVG. FORCE       3.678E+05
 LARGEST RESIDUAL FORCE              841.       AT NODE        123   DOF  1
   INSTANCE: PLATE-1                                                                         
 LARGEST INCREMENT OF DISP.        -0.140       AT NODE         63   DOF  1
   INSTANCE: PLATE-1                                                                         
 LARGEST CORRECTION TO DISP.       -2.560E-04   AT NODE        123   DOF  1
   INSTANCE: PLATE-1                                                                         
          THE FORCE     EQUILIBRIUM EQUATIONS HAVE CONVERGED

 AVERAGE MOMENT                     1.002E+08   TIME AVG. MOMENT      1.002E+08
 ALL MOMENT    RESIDUALS ARE ZERO
 LARGEST INCREMENT OF ROTATION      1.142E-31   AT NODE          1   DOF  6
   INSTANCE: RIGID_PRESS-1                                                                   
 LARGEST CORRECTION TO ROTATION     2.781E-31   AT NODE          1   DOF  6
   INSTANCE: RIGID_PRESS-1                                                                   
          THE MOMENT    EQUILIBRIUM EQUATIONS HAVE CONVERGED

 ITERATION SUMMARY FOR THE INCREMENT:   3 TOTAL ITERATIONS, OF WHICH
   0 ARE SEVERE DISCONTINUITY ITERATIONS AND  3 ARE EQUILIBRIUM ITERATIONS.

 TIME INCREMENT COMPLETED  3.906E-03,  FRACTION OF STEP COMPLETED  3.906E-03
 STEP TIME COMPLETED       3.906E-03,  TOTAL TIME COMPLETED        3.906E-03


  INCREMENT     2 STARTS. ATTEMPT NUMBER  1, TIME INCREMENT  3.906E-03

  NUMBER OF EQUATIONS =       698     NUMBER OF FLOATING PT. OPERATIONS =  3.77E+05

     CHECK POINT   START OF SOLVER    

     CHECK POINT  END OF SOLVER       

       ELAPSED USER TIME (SEC)      =   0.0000    
       ELAPSED SYSTEM TIME (SEC)    =   0.0000    
       ELAPSED TOTAL CPU TIME (SEC) =   0.0000    
       ELAPSED WALLCLOCK TIME (SEC) =          0

               CONVERGENCE CHECKS FOR EQUILIBRIUM ITERATION     1

   MAX. PENETRATION ERROR -14.2109E-15  AT NODE PLATE-1.12 OF CONTACT PAIR 
   (ASSEMBLY_S_SURF-1,ASSEMBLY_RIGID_PRESS-1_SURF-3)
   MAX. CONTACT FORCE ERROR 1.51825E-09 AT NODE PLATE-1.13 OF CONTACT PAIR 
   (ASSEMBLY_S_SURF-1,ASSEMBLY_RIGID_PRESS-1_SURF-3)
          THE CONTACT CONSTRAINTS HAVE CONVERGED.

 AVERAGE FORCE                      1.454E+06   TIME AVG. FORCE       9.108E+05
 LARGEST RESIDUAL FORCE            -1.676E+05   AT NODE        123   DOF  1
   INSTANCE: PLATE-1                                                                         
 LARGEST INCREMENT OF DISP.         0.166       AT NODE         74   DOF  1
   INSTANCE: PLATE-1                                                                         
 LARGEST CORRECTION TO DISP.        2.794E-02   AT NODE        121   DOF  1
   INSTANCE: PLATE-1                                                                         
          FORCE     EQUILIBRIUM NOT ACHIEVED WITHIN TOLERANCE.

 AVERAGE MOMENT                     9.869E+08   TIME AVG. MOMENT      5.435E+08
 ALL MOMENT    RESIDUALS ARE ZERO
 LARGEST INCREMENT OF ROTATION     -3.511E-29   AT NODE          1   DOF  6
   INSTANCE: RIGID_PRESS-1                                                                   
 LARGEST CORRECTION TO ROTATION    -3.522E-29   AT NODE          1   DOF  6
   INSTANCE: RIGID_PRESS-1                                                                   
          THE MOMENT    EQUILIBRIUM RESPONSE WAS LINEAR IN THIS INCREMENT

  NUMBER OF EQUATIONS =       698     NUMBER OF FLOATING PT. OPERATIONS =  3.77E+05

     CHECK POINT   START OF SOLVER    

     CHECK POINT  END OF SOLVER       

       ELAPSED USER TIME (SEC)      =   0.0000    
       ELAPSED SYSTEM TIME (SEC)    =   0.0000    
       ELAPSED TOTAL CPU TIME (SEC) =   0.0000    
       ELAPSED WALLCLOCK TIME (SEC) =          0

               CONVERGENCE CHECKS FOR EQUILIBRIUM ITERATION     2

   MAX. PENETRATION ERROR -14.2109E-15  AT NODE PLATE-1.13 OF CONTACT PAIR 
   (ASSEMBLY_S_SURF-1,ASSEMBLY_RIGID_PRESS-1_SURF-3)
   MAX. CONTACT FORCE ERROR -1.51825E-09 AT NODE PLATE-1.13 OF CONTACT PAIR 
   (ASSEMBLY_S_SURF-1,ASSEMBLY_RIGID_PRESS-1_SURF-3)
          THE CONTACT CONSTRAINTS HAVE CONVERGED.

 AVERAGE FORCE                      1.482E+06   TIME AVG. FORCE       9.250E+05
 LARGEST RESIDUAL FORCE            -7.750E+05   AT NODE          7   DOF  2
   INSTANCE: PLATE-1                                                                         
 LARGEST INCREMENT OF DISP.        -0.229       AT NODE         63   DOF  1
   INSTANCE: PLATE-1                                                                         
 LARGEST CORRECTION TO DISP.       -0.107       AT NODE        122   DOF  1
   INSTANCE: PLATE-1                                                                         
          FORCE     EQUILIBRIUM NOT ACHIEVED WITHIN TOLERANCE.

 AVERAGE MOMENT                     9.928E+08   TIME AVG. MOMENT      5.465E+08
 ALL MOMENT    RESIDUALS ARE ZERO
 LARGEST INCREMENT OF ROTATION      2.758E-28   AT NODE          1   DOF  6
   INSTANCE: RIGID_PRESS-1                                                                   
 LARGEST CORRECTION TO ROTATION     3.109E-28   AT NODE          1   DOF  6
   INSTANCE: RIGID_PRESS-1                                                                   
          THE MOMENT    EQUILIBRIUM EQUATIONS HAVE CONVERGED

  NUMBER OF EQUATIONS =       698     NUMBER OF FLOATING PT. OPERATIONS =  3.77E+05

     CHECK POINT   START OF SOLVER    

     CHECK POINT  END OF SOLVER       

       ELAPSED USER TIME (SEC)      =   0.0000    
       ELAPSED SYSTEM TIME (SEC)    =   0.0000    
       ELAPSED TOTAL CPU TIME (SEC) =   0.0000    
       ELAPSED WALLCLOCK TIME (SEC) =          0

 ***WARNING: THE STRAIN INCREMENT HAS EXCEEDED FIFTY TIMES THE STRAIN TO CAUSE 
             FIRST YIELD AT 1 POINTS

                    4 SEVERE DISCONTINUITIES OCCURRED DURING THIS ITERATION.
                    4 POINTS CHANGED FROM CLOSED TO OPEN

               CONVERGENCE CHECKS FOR SEVERE DISCONTINUITY ITERATION     1

   MAX. PENETRATION ERROR 14.2109E-15  AT NODE PLATE-1.122 OF CONTACT PAIR 
   (ASSEMBLY_S_SURF-1,ASSEMBLY_RIGID_PRESS-1_SURF-3)
   MAX. CONTACT FORCE ERROR -19.5774E+06  AT NODE PLATE-1.125 OF CONTACT PAIR 
   (ASSEMBLY_S_SURF-1,ASSEMBLY_RIGID_PRESS-1_SURF-3)
          THE ESTIMATED CONTACT FORCE ERROR IS OUTSIDE OF CONVERGENCE TOLERANCES.

 AVERAGE FORCE                      2.972E+06   TIME AVG. FORCE       1.670E+06
 LARGEST RESIDUAL FORCE             4.951E+07   AT NODE          7   DOF  1
   INSTANCE: PLATE-1                                                                         
 LARGEST INCREMENT OF DISP.          4.26       AT NODE        122   DOF  1
   INSTANCE: PLATE-1                                                                         
 LARGEST CORRECTION TO DISP.         4.25       AT NODE        122   DOF  1
   INSTANCE: PLATE-1                                                                         
          FORCE     EQUILIBRIUM NOT ACHIEVED WITHIN TOLERANCE.

 AVERAGE MOMENT                     1.740E+09   TIME AVG. MOMENT      9.200E+08
 ALL MOMENT    RESIDUALS ARE ZERO
 LARGEST INCREMENT OF ROTATION     -1.187E-26   AT NODE          1   DOF  6
   INSTANCE: RIGID_PRESS-1                                                                   
 LARGEST CORRECTION TO ROTATION    -1.214E-26   AT NODE          1   DOF  6
   INSTANCE: RIGID_PRESS-1                                                                   
          THE MOMENT    EQUILIBRIUM EQUATIONS HAVE CONVERGED

  NUMBER OF EQUATIONS =       694     NUMBER OF FLOATING PT. OPERATIONS =  3.62E+05

     CHECK POINT   START OF SOLVER    

     CHECK POINT  END OF SOLVER       

       ELAPSED USER TIME (SEC)      =   0.0000    
       ELAPSED SYSTEM TIME (SEC)    =   0.0000    
       ELAPSED TOTAL CPU TIME (SEC) =   0.0000    
       ELAPSED WALLCLOCK TIME (SEC) =          0
 

 ***WARNING: THE SYSTEM MATRIX HAS 1 NEGATIVE EIGENVALUES.
             EXPLANATIONS ARE SUGGESTED AFTER THE FIRST OCCURRENCE OF THIS MESSAGE.

 ***WARNING: THE STRAIN INCREMENT HAS EXCEEDED FIFTY TIMES THE STRAIN TO CAUSE 
             FIRST YIELD AT 10 POINTS

                    4 SEVERE DISCONTINUITIES OCCURRED DURING THIS ITERATION.
                    4 POINTS CHANGED FROM OPEN TO CLOSED

               CONVERGENCE CHECKS FOR SEVERE DISCONTINUITY ITERATION     2

   MAX. PENETRATION ERROR 1.97577     AT NODE PLATE-1.124 OF CONTACT PAIR 
   (ASSEMBLY_S_SURF-1,ASSEMBLY_RIGID_PRESS-1_SURF-3)
   MAX. CONTACT FORCE ERROR 211.087E+03   AT NODE PLATE-1.124 OF CONTACT PAIR 
   (ASSEMBLY_S_SURF-1,ASSEMBLY_RIGID_PRESS-1_SURF-3)
          PENETRATION ERROR TOO LARGE COMPARED TO DISPLACEMENT INCREMENT.

 AVERAGE FORCE                      2.047E+06   TIME AVG. FORCE       1.207E+06
 LARGEST RESIDUAL FORCE             2.442E+07   AT NODE        122   DOF  1
   INSTANCE: PLATE-1                                                                         
 LARGEST INCREMENT OF DISP.          5.37       AT NODE          7   DOF  1
   INSTANCE: PLATE-1                                                                         
 LARGEST CORRECTION TO DISP.        -5.43       AT NODE        122   DOF  1
   INSTANCE: PLATE-1                                                                         
          FORCE     EQUILIBRIUM NOT ACHIEVED WITHIN TOLERANCE.

 AVERAGE MOMENT                     9.559E+08   TIME AVG. MOMENT      5.280E+08
 ALL MOMENT    RESIDUALS ARE ZERO
 LARGEST INCREMENT OF ROTATION     -1.061E-27   AT NODE          1   DOF  6
   INSTANCE: RIGID_PRESS-1                                                                   
 LARGEST CORRECTION TO ROTATION     1.081E-26   AT NODE          1   DOF  6
   INSTANCE: RIGID_PRESS-1                                                                   
          THE MOMENT    EQUILIBRIUM EQUATIONS HAVE CONVERGED

  NUMBER OF EQUATIONS =       698     NUMBER OF FLOATING PT. OPERATIONS =  3.77E+05

     CHECK POINT   START OF SOLVER    

     CHECK POINT  END OF SOLVER       

       ELAPSED USER TIME (SEC)      =   0.0000    
       ELAPSED SYSTEM TIME (SEC)    =   0.0000    
       ELAPSED TOTAL CPU TIME (SEC) =   0.0000    
       ELAPSED WALLCLOCK TIME (SEC) =          0
 

 ***WARNING: THE SYSTEM MATRIX HAS 4 NEGATIVE EIGENVALUES.
             EXPLANATIONS ARE SUGGESTED AFTER THE FIRST OCCURRENCE OF THIS MESSAGE.
   ELEMENT PLATE-1.10 IS DISTORTING EXCESSIVELY.
   ELEMENT PLATE-1.10 IS DISTORTING EXCESSIVELY.
   ELEMENT PLATE-1.30 IS DISTORTING EXCESSIVELY.
   ELEMENT PLATE-1.30 IS DISTORTING EXCESSIVELY.
   ELEMENT PLATE-1.30 IS DISTORTING EXCESSIVELY.
   ELEMENT PLATE-1.30 IS DISTORTING EXCESSIVELY.
   ELEMENT PLATE-1.141 IS DISTORTING EXCESSIVELY.
   ELEMENT PLATE-1.141 IS DISTORTING EXCESSIVELY.
   ELEMENT PLATE-1.141 IS DISTORTING EXCESSIVELY.
   ELEMENT PLATE-1.141 IS DISTORTING EXCESSIVELY.
   ELEMENT PLATE-1.141 IS DISTORTING EXCESSIVELY.
   ELEMENT PLATE-1.141 IS DISTORTING EXCESSIVELY.

 ***WARNING: THE STRAIN INCREMENT HAS EXCEEDED FIFTY TIMES THE STRAIN TO CAUSE 
             FIRST YIELD AT 36 POINTS

 ***WARNING: THE STRAIN INCREMENT IS SO LARGE THAT THE PROGRAM WILL NOT ATTEMPT 
             THE PLASTICITY CALCULATION AT 3 POINTS

 ***WARNING: EXCESSIVE DISTORTION AT A TOTAL OF 12 INTEGRATION POINTS IN SOLID 
             (CONTINUUM) ELEMENTS
 

 ***NOTE: ELEMENTS ARE DISTORTING EXCESSIVELY. CONVERGENCE IS JUDGED UNLIKELY.
 

 ***NOTE: MATERIAL CALCULATIONS FAILED TO CONVERGE OR WERE NOT ATTEMPTED AT ONE 
          OR MORE POINTS. CONVERGENCE IS JUDGED UNLIKELY.


  INCREMENT     2 STARTS. ATTEMPT NUMBER  2, TIME INCREMENT  9.766E-04

  NUMBER OF EQUATIONS =       698     NUMBER OF FLOATING PT. OPERATIONS =  3.77E+05

     CHECK POINT   START OF SOLVER    

     CHECK POINT  END OF SOLVER       

       ELAPSED USER TIME (SEC)      =  1.00000E-02
       ELAPSED SYSTEM TIME (SEC)    =   0.0000    
       ELAPSED TOTAL CPU TIME (SEC) =  1.00000E-02
       ELAPSED WALLCLOCK TIME (SEC) =          0

               CONVERGENCE CHECKS FOR EQUILIBRIUM ITERATION     1

   MAX. PENETRATION ERROR -14.2109E-15  AT NODE PLATE-1.2 OF CONTACT PAIR 
   (ASSEMBLY_S_SURF-1,ASSEMBLY_RIGID_PRESS-1_SURF-3)
   MAX. CONTACT FORCE ERROR -1.51825E-09 AT NODE PLATE-1.2 OF CONTACT PAIR 
   (ASSEMBLY_S_SURF-1,ASSEMBLY_RIGID_PRESS-1_SURF-3)
          THE CONTACT CONSTRAINTS HAVE CONVERGED.

 AVERAGE FORCE                      9.819E+05   TIME AVG. FORCE       6.749E+05
 LARGEST RESIDUAL FORCE            -1.451E+03   AT NODE        123   DOF  1
   INSTANCE: PLATE-1                                                                         
 LARGEST INCREMENT OF DISP.         3.535E-02   AT NODE         74   DOF  1
   INSTANCE: PLATE-1                                                                         
 LARGEST CORRECTION TO DISP.        3.605E-04   AT NODE        255   DOF  1
   INSTANCE: PLATE-1                                                                         
 ESTIMATE OF DISP.    CORRECTION    1.388E-04
 FORCE     EQUILIB. ACCEPTED BASED ON SMALL RESIDUAL AND ESTIMATED CORRECTION

 AVERAGE MOMENT                     7.134E+08   TIME AVG. MOMENT      4.068E+08
 ALL MOMENT    RESIDUALS ARE ZERO
 LARGEST INCREMENT OF ROTATION     -1.819E-31   AT NODE          1   DOF  6
   INSTANCE: RIGID_PRESS-1                                                                   
 LARGEST CORRECTION TO ROTATION    -2.104E-31   AT NODE          1   DOF  6
   INSTANCE: RIGID_PRESS-1                                                                   
          THE MOMENT    EQUILIBRIUM RESPONSE WAS LINEAR IN THIS INCREMENT
          TIME INCREMENT MAY NOW INCREASE TO    1.465E-03

 ITERATION SUMMARY FOR THE INCREMENT:   1 TOTAL ITERATIONS, OF WHICH
   0 ARE SEVERE DISCONTINUITY ITERATIONS AND  1 ARE EQUILIBRIUM ITERATIONS.

 TIME INCREMENT COMPLETED  9.766E-04,  FRACTION OF STEP COMPLETED  4.883E-03
 STEP TIME COMPLETED       4.883E-03,  TOTAL TIME COMPLETED        4.883E-03


  INCREMENT     3 STARTS. ATTEMPT NUMBER  1, TIME INCREMENT  1.465E-03

  NUMBER OF EQUATIONS =       698     NUMBER OF FLOATING PT. OPERATIONS =  3.77E+05

     CHECK POINT   START OF SOLVER    

     CHECK POINT  END OF SOLVER       

       ELAPSED USER TIME (SEC)      =  1.00000E-02
       ELAPSED SYSTEM TIME (SEC)    =   0.0000    
       ELAPSED TOTAL CPU TIME (SEC) =  1.00000E-02
       ELAPSED WALLCLOCK TIME (SEC) =          0

               CONVERGENCE CHECKS FOR EQUILIBRIUM ITERATION     1

   MAX. PENETRATION ERROR -14.2109E-15  AT NODE PLATE-1.2 OF CONTACT PAIR 
   (ASSEMBLY_S_SURF-1,ASSEMBLY_RIGID_PRESS-1_SURF-3)
   MAX. CONTACT FORCE ERROR -1.51825E-09 AT NODE PLATE-1.2 OF CONTACT PAIR 
   (ASSEMBLY_S_SURF-1,ASSEMBLY_RIGID_PRESS-1_SURF-3)
          THE CONTACT CONSTRAINTS HAVE CONVERGED.

 AVERAGE FORCE                      1.263E+06   TIME AVG. FORCE       8.708E+05
 LARGEST RESIDUAL FORCE             4.257E+03   AT NODE        123   DOF  1
   INSTANCE: PLATE-1                                                                         
 LARGEST INCREMENT OF DISP.        -5.320E-02   AT NODE         63   DOF  1
   INSTANCE: PLATE-1                                                                         
 LARGEST CORRECTION TO DISP.       -9.229E-04   AT NODE        123   DOF  1
   INSTANCE: PLATE-1                                                                         
 ESTIMATE OF DISP.    CORRECTION    7.364E-05
 FORCE     EQUILIB. ACCEPTED BASED ON SMALL RESIDUAL AND ESTIMATED CORRECTION

 AVERAGE MOMENT                     9.269E+08   TIME AVG. MOMENT      5.802E+08
 ALL MOMENT    RESIDUALS ARE ZERO
 LARGEST INCREMENT OF ROTATION      1.108E-30   AT NODE          1   DOF  6
   INSTANCE: RIGID_PRESS-1                                                                   
 LARGEST CORRECTION TO ROTATION     1.381E-30   AT NODE          1   DOF  6
   INSTANCE: RIGID_PRESS-1                                                                   
          THE MOMENT    EQUILIBRIUM RESPONSE WAS LINEAR IN THIS INCREMENT
          TIME INCREMENT MAY NOW INCREASE TO    2.197E-03

 ITERATION SUMMARY FOR THE INCREMENT:   1 TOTAL ITERATIONS, OF WHICH
   0 ARE SEVERE DISCONTINUITY ITERATIONS AND  1 ARE EQUILIBRIUM ITERATIONS.

 TIME INCREMENT COMPLETED  1.465E-03,  FRACTION OF STEP COMPLETED  6.348E-03
 STEP TIME COMPLETED       6.348E-03,  TOTAL TIME COMPLETED        6.348E-03


  INCREMENT     4 STARTS. ATTEMPT NUMBER  1, TIME INCREMENT  2.197E-03

  NUMBER OF EQUATIONS =       698     NUMBER OF FLOATING PT. OPERATIONS =  3.77E+05

     CHECK POINT   START OF SOLVER    

     CHECK POINT  END OF SOLVER       

       ELAPSED USER TIME (SEC)      =   0.0000    
       ELAPSED SYSTEM TIME (SEC)    =   0.0000    
       ELAPSED TOTAL CPU TIME (SEC) =   0.0000    
       ELAPSED WALLCLOCK TIME (SEC) =          0
 

 ***WARNING: THE SYSTEM MATRIX HAS 1 NEGATIVE EIGENVALUES.
             EXPLANATIONS ARE SUGGESTED AFTER THE FIRST OCCURRENCE OF THIS MESSAGE.

               CONVERGENCE CHECKS FOR EQUILIBRIUM ITERATION     1

   MAX. PENETRATION ERROR 14.2109E-15  AT NODE PLATE-1.12 OF CONTACT PAIR 
   (ASSEMBLY_S_SURF-1,ASSEMBLY_RIGID_PRESS-1_SURF-3)
   MAX. CONTACT FORCE ERROR -1.51825E-09 AT NODE PLATE-1.124 OF CONTACT PAIR 
   (ASSEMBLY_S_SURF-1,ASSEMBLY_RIGID_PRESS-1_SURF-3)
          THE CONTACT CONSTRAINTS HAVE CONVERGED.

 AVERAGE FORCE                      1.525E+06   TIME AVG. FORCE       1.034E+06
 LARGEST RESIDUAL FORCE             2.740E+05   AT NODE         14   DOF  1
   INSTANCE: PLATE-1                                                                         
 LARGEST INCREMENT OF DISP.        -0.131       AT NODE         63   DOF  1
   INSTANCE: PLATE-1                                                                         
 LARGEST CORRECTION TO DISP.       -5.416E-02   AT NODE         16   DOF  1
   INSTANCE: PLATE-1                                                                         
          FORCE     EQUILIBRIUM NOT ACHIEVED WITHIN TOLERANCE.

 AVERAGE MOMENT                     1.026E+09   TIME AVG. MOMENT      6.917E+08
 ALL MOMENT    RESIDUALS ARE ZERO
 LARGEST INCREMENT OF ROTATION      5.157E-29   AT NODE          1   DOF  6
   INSTANCE: RIGID_PRESS-1                                                                   
 LARGEST CORRECTION TO ROTATION     4.991E-29   AT NODE          1   DOF  6
   INSTANCE: RIGID_PRESS-1                                                                   
          THE MOMENT    EQUILIBRIUM RESPONSE WAS LINEAR IN THIS INCREMENT

  NUMBER OF EQUATIONS =       698     NUMBER OF FLOATING PT. OPERATIONS =  3.77E+05

     CHECK POINT   START OF SOLVER    

     CHECK POINT  END OF SOLVER       

       ELAPSED USER TIME (SEC)      =   0.0000    
       ELAPSED SYSTEM TIME (SEC)    =   0.0000    
       ELAPSED TOTAL CPU TIME (SEC) =   0.0000    
       ELAPSED WALLCLOCK TIME (SEC) =          0
 

 ***WARNING: THE SYSTEM MATRIX HAS 1 NEGATIVE EIGENVALUES.
             EXPLANATIONS ARE SUGGESTED AFTER THE FIRST OCCURRENCE OF THIS MESSAGE.

               CONVERGENCE CHECKS FOR EQUILIBRIUM ITERATION     2

   MAX. PENETRATION ERROR -14.2109E-15  AT NODE PLATE-1.14 OF CONTACT PAIR 
   (ASSEMBLY_S_SURF-1,ASSEMBLY_RIGID_PRESS-1_SURF-3)
   MAX. CONTACT FORCE ERROR 1.51825E-09 AT NODE PLATE-1.124 OF CONTACT PAIR 
   (ASSEMBLY_S_SURF-1,ASSEMBLY_RIGID_PRESS-1_SURF-3)
          THE CONTACT CONSTRAINTS HAVE CONVERGED.

 AVERAGE FORCE                      1.617E+06   TIME AVG. FORCE       1.057E+06
 LARGEST RESIDUAL FORCE            -6.573E+06   AT NODE          7   DOF  1
   INSTANCE: PLATE-1                                                                         
 LARGEST INCREMENT OF DISP.        -0.560       AT NODE         62   DOF  1
   INSTANCE: PLATE-1                                                                         
 LARGEST CORRECTION TO DISP.       -0.515       AT NODE        122   DOF  1
   INSTANCE: PLATE-1                                                                         
          FORCE     EQUILIBRIUM NOT ACHIEVED WITHIN TOLERANCE.

 AVERAGE MOMENT                     1.050E+09   TIME AVG. MOMENT      6.976E+08
 ALL MOMENT    RESIDUALS ARE ZERO
 LARGEST INCREMENT OF ROTATION      1.554E-27   AT NODE          1   DOF  6
   INSTANCE: RIGID_PRESS-1                                                                   
 LARGEST CORRECTION TO ROTATION     1.502E-27   AT NODE          1   DOF  6
   INSTANCE: RIGID_PRESS-1                                                                   
          THE MOMENT    EQUILIBRIUM EQUATIONS HAVE CONVERGED

  NUMBER OF EQUATIONS =       698     NUMBER OF FLOATING PT. OPERATIONS =  3.77E+05

     CHECK POINT   START OF SOLVER    

     CHECK POINT  END OF SOLVER       

       ELAPSED USER TIME (SEC)      =  1.00000E-02
       ELAPSED SYSTEM TIME (SEC)    =  1.00000E-02
       ELAPSED TOTAL CPU TIME (SEC) =  2.00000E-02
       ELAPSED WALLCLOCK TIME (SEC) =          0
 

 ***WARNING: THE SYSTEM MATRIX HAS 1 NEGATIVE EIGENVALUES.
             EXPLANATIONS ARE SUGGESTED AFTER THE FIRST OCCURRENCE OF THIS MESSAGE.

               CONVERGENCE CHECKS FOR EQUILIBRIUM ITERATION     3

   MAX. PENETRATION ERROR 14.2109E-15  AT NODE PLATE-1.13 OF CONTACT PAIR 
   (ASSEMBLY_S_SURF-1,ASSEMBLY_RIGID_PRESS-1_SURF-3)
   MAX. CONTACT FORCE ERROR -1.51825E-09 AT NODE PLATE-1.124 OF CONTACT PAIR 
   (ASSEMBLY_S_SURF-1,ASSEMBLY_RIGID_PRESS-1_SURF-3)
          THE CONTACT CONSTRAINTS HAVE CONVERGED.

 AVERAGE FORCE                      1.565E+06   TIME AVG. FORCE       1.044E+06
 LARGEST RESIDUAL FORCE             3.265E+06   AT NODE        123   DOF  1
   INSTANCE: PLATE-1                                                                         
 LARGEST INCREMENT OF DISP.         -1.03       AT NODE        151   DOF  1
   INSTANCE: PLATE-1                                                                         
 LARGEST CORRECTION TO DISP.       -0.545       AT NODE          7   DOF  1
   INSTANCE: PLATE-1                                                                         
          FORCE     EQUILIBRIUM NOT ACHIEVED WITHIN TOLERANCE.

 AVERAGE MOMENT                     1.015E+09   TIME AVG. MOMENT      6.888E+08
 ALL MOMENT    RESIDUALS ARE ZERO
 LARGEST INCREMENT OF ROTATION      1.466E-27   AT NODE          1   DOF  6
   INSTANCE: RIGID_PRESS-1                                                                   
 LARGEST CORRECTION TO ROTATION    -8.808E-29   AT NODE          1   DOF  6
   INSTANCE: RIGID_PRESS-1                                                                   
          THE MOMENT    EQUILIBRIUM EQUATIONS HAVE CONVERGED

  NUMBER OF EQUATIONS =       698     NUMBER OF FLOATING PT. OPERATIONS =  3.77E+05

     CHECK POINT   START OF SOLVER    

     CHECK POINT  END OF SOLVER       

       ELAPSED USER TIME (SEC)      =   0.0000    
       ELAPSED SYSTEM TIME (SEC)    =   0.0000    
       ELAPSED TOTAL CPU TIME (SEC) =   0.0000    
       ELAPSED WALLCLOCK TIME (SEC) =          0
 

 ***WARNING: THE SYSTEM MATRIX HAS 1 NEGATIVE EIGENVALUES.
             EXPLANATIONS ARE SUGGESTED AFTER THE FIRST OCCURRENCE OF THIS MESSAGE.

               CONVERGENCE CHECKS FOR EQUILIBRIUM ITERATION     4

   MAX. PENETRATION ERROR -14.2109E-15  AT NODE PLATE-1.2 OF CONTACT PAIR 
   (ASSEMBLY_S_SURF-1,ASSEMBLY_RIGID_PRESS-1_SURF-3)
   MAX. CONTACT FORCE ERROR -1.51825E-09 AT NODE PLATE-1.2 OF CONTACT PAIR 
   (ASSEMBLY_S_SURF-1,ASSEMBLY_RIGID_PRESS-1_SURF-3)
          THE CONTACT CONSTRAINTS HAVE CONVERGED.

 AVERAGE FORCE                      1.547E+06   TIME AVG. FORCE       1.040E+06
 LARGEST RESIDUAL FORCE             3.757E+06   AT NODE        123   DOF  1
   INSTANCE: PLATE-1                                                                         
 LARGEST INCREMENT OF DISP.         -1.55       AT NODE         15   DOF  1
   INSTANCE: PLATE-1                                                                         
 LARGEST CORRECTION TO DISP.       -0.565       AT NODE          7   DOF  1
   INSTANCE: PLATE-1                                                                         
          FORCE     EQUILIBRIUM NOT ACHIEVED WITHIN TOLERANCE.

 AVERAGE MOMENT                     9.913E+08   TIME AVG. MOMENT      6.829E+08
 ALL MOMENT    RESIDUALS ARE ZERO
 LARGEST INCREMENT OF ROTATION      1.581E-27   AT NODE          1   DOF  6
   INSTANCE: RIGID_PRESS-1                                                                   
 LARGEST CORRECTION TO ROTATION     1.153E-28   AT NODE          1   DOF  6
   INSTANCE: RIGID_PRESS-1                                                                   
          THE MOMENT    EQUILIBRIUM EQUATIONS HAVE CONVERGED

  NUMBER OF EQUATIONS =       698     NUMBER OF FLOATING PT. OPERATIONS =  3.77E+05

     CHECK POINT   START OF SOLVER    

     CHECK POINT  END OF SOLVER       

       ELAPSED USER TIME (SEC)      =   0.0000    
       ELAPSED SYSTEM TIME (SEC)    =   0.0000    
       ELAPSED TOTAL CPU TIME (SEC) =   0.0000    
       ELAPSED WALLCLOCK TIME (SEC) =          0
 

 ***WARNING: THE SYSTEM MATRIX HAS 1 NEGATIVE EIGENVALUES.
             EXPLANATIONS ARE SUGGESTED AFTER THE FIRST OCCURRENCE OF THIS MESSAGE.

               CONVERGENCE CHECKS FOR EQUILIBRIUM ITERATION     5

   MAX. PENETRATION ERROR 14.2109E-15  AT NODE PLATE-1.12 OF CONTACT PAIR 
   (ASSEMBLY_S_SURF-1,ASSEMBLY_RIGID_PRESS-1_SURF-3)
   MAX. CONTACT FORCE ERROR -1.51825E-09 AT NODE PLATE-1.124 OF CONTACT PAIR 
   (ASSEMBLY_S_SURF-1,ASSEMBLY_RIGID_PRESS-1_SURF-3)
          THE CONTACT CONSTRAINTS HAVE CONVERGED.

 AVERAGE FORCE                      1.531E+06   TIME AVG. FORCE       1.036E+06
 LARGEST RESIDUAL FORCE             4.492E+06   AT NODE        123   DOF  1
   INSTANCE: PLATE-1                                                                         
 LARGEST INCREMENT OF DISP.         -2.15       AT NODE         15   DOF  1
   INSTANCE: PLATE-1                                                                         
 LARGEST CORRECTION TO DISP.       -0.617       AT NODE          7   DOF  1
   INSTANCE: PLATE-1                                                                         
          FORCE     EQUILIBRIUM NOT ACHIEVED WITHIN TOLERANCE.

 AVERAGE MOMENT                     9.632E+08   TIME AVG. MOMENT      6.759E+08
 ALL MOMENT    RESIDUALS ARE ZERO
 LARGEST INCREMENT OF ROTATION      1.788E-27   AT NODE          1   DOF  6
   INSTANCE: RIGID_PRESS-1                                                                   
 LARGEST CORRECTION TO ROTATION     2.072E-28   AT NODE          1   DOF  6
   INSTANCE: RIGID_PRESS-1                                                                   
          THE MOMENT    EQUILIBRIUM EQUATIONS HAVE CONVERGED
 

 ***NOTE: THE SOLUTION APPEARS TO BE DIVERGING. CONVERGENCE IS JUDGED UNLIKELY.


  INCREMENT     4 STARTS. ATTEMPT NUMBER  2, TIME INCREMENT  5.493E-04

  NUMBER OF EQUATIONS =       698     NUMBER OF FLOATING PT. OPERATIONS =  3.77E+05

     CHECK POINT   START OF SOLVER    

     CHECK POINT  END OF SOLVER       

       ELAPSED USER TIME (SEC)      =  1.00000E-02
       ELAPSED SYSTEM TIME (SEC)    =   0.0000    
       ELAPSED TOTAL CPU TIME (SEC) =  1.00000E-02
       ELAPSED WALLCLOCK TIME (SEC) =          0

               CONVERGENCE CHECKS FOR EQUILIBRIUM ITERATION     1

   MAX. PENETRATION ERROR -14.2109E-15  AT NODE PLATE-1.12 OF CONTACT PAIR 
   (ASSEMBLY_S_SURF-1,ASSEMBLY_RIGID_PRESS-1_SURF-3)
   MAX. CONTACT FORCE ERROR -1.51825E-09 AT NODE PLATE-1.124 OF CONTACT PAIR 
   (ASSEMBLY_S_SURF-1,ASSEMBLY_RIGID_PRESS-1_SURF-3)
          THE CONTACT CONSTRAINTS HAVE CONVERGED.

 AVERAGE FORCE                      1.373E+06   TIME AVG. FORCE       9.962E+05
 LARGEST RESIDUAL FORCE            -1.531E+04   AT NODE        123   DOF  1
   INSTANCE: PLATE-1                                                                         
 LARGEST INCREMENT OF DISP.         2.241E-02   AT NODE         74   DOF  1
   INSTANCE: PLATE-1                                                                         
 LARGEST CORRECTION TO DISP.        3.295E-03   AT NODE         72   DOF  1
   INSTANCE: PLATE-1                                                                         
          FORCE     EQUILIBRIUM NOT ACHIEVED WITHIN TOLERANCE.

 AVERAGE MOMENT                     1.000E+09   TIME AVG. MOMENT      6.852E+08
 ALL MOMENT    RESIDUALS ARE ZERO
 LARGEST INCREMENT OF ROTATION     -4.278E-30   AT NODE          1   DOF  6
   INSTANCE: RIGID_PRESS-1                                                                   
 LARGEST CORRECTION TO ROTATION    -4.694E-30   AT NODE          1   DOF  6
   INSTANCE: RIGID_PRESS-1                                                                   
          THE MOMENT    EQUILIBRIUM RESPONSE WAS LINEAR IN THIS INCREMENT

  NUMBER OF EQUATIONS =       698     NUMBER OF FLOATING PT. OPERATIONS =  3.77E+05

     CHECK POINT   START OF SOLVER    

     CHECK POINT  END OF SOLVER       

       ELAPSED USER TIME (SEC)      =  1.00000E-02
       ELAPSED SYSTEM TIME (SEC)    =   0.0000    
       ELAPSED TOTAL CPU TIME (SEC) =  1.00000E-02
       ELAPSED WALLCLOCK TIME (SEC) =          0

               CONVERGENCE CHECKS FOR EQUILIBRIUM ITERATION     2

   MAX. PENETRATION ERROR 14.2109E-15  AT NODE PLATE-1.12 OF CONTACT PAIR 
   (ASSEMBLY_S_SURF-1,ASSEMBLY_RIGID_PRESS-1_SURF-3)
   MAX. CONTACT FORCE ERROR 1.51825E-09 AT NODE PLATE-1.124 OF CONTACT PAIR 
   (ASSEMBLY_S_SURF-1,ASSEMBLY_RIGID_PRESS-1_SURF-3)
          THE CONTACT CONSTRAINTS HAVE CONVERGED.

 AVERAGE FORCE                      1.374E+06   TIME AVG. FORCE       9.967E+05
 LARGEST RESIDUAL FORCE             2.704E+04   AT NODE        123   DOF  1
   INSTANCE: PLATE-1                                                                         
 LARGEST INCREMENT OF DISP.        -2.293E-02   AT NODE         63   DOF  1
   INSTANCE: PLATE-1                                                                         
 LARGEST CORRECTION TO DISP.       -4.577E-03   AT NODE        123   DOF  1
   INSTANCE: PLATE-1                                                                         
          FORCE     EQUILIBRIUM NOT ACHIEVED WITHIN TOLERANCE.

 AVERAGE MOMENT                     9.095E+08   TIME AVG. MOMENT      6.625E+08
 ALL MOMENT    RESIDUALS ARE ZERO
 LARGEST INCREMENT OF ROTATION      9.020E-30   AT NODE          1   DOF  6
   INSTANCE: RIGID_PRESS-1                                                                   
 LARGEST CORRECTION TO ROTATION     1.330E-29   AT NODE          1   DOF  6
   INSTANCE: RIGID_PRESS-1                                                                   
          THE MOMENT    EQUILIBRIUM EQUATIONS HAVE CONVERGED

  NUMBER OF EQUATIONS =       698     NUMBER OF FLOATING PT. OPERATIONS =  3.77E+05

     CHECK POINT   START OF SOLVER    

     CHECK POINT  END OF SOLVER       

       ELAPSED USER TIME (SEC)      =   0.0000    
       ELAPSED SYSTEM TIME (SEC)    =   0.0000    
       ELAPSED TOTAL CPU TIME (SEC) =   0.0000    
       ELAPSED WALLCLOCK TIME (SEC) =          0

               CONVERGENCE CHECKS FOR EQUILIBRIUM ITERATION     3

   MAX. PENETRATION ERROR -14.2109E-15  AT NODE PLATE-1.12 OF CONTACT PAIR 
   (ASSEMBLY_S_SURF-1,ASSEMBLY_RIGID_PRESS-1_SURF-3)
   MAX. CONTACT FORCE ERROR -1.51825E-09 AT NODE PLATE-1.124 OF CONTACT PAIR 
   (ASSEMBLY_S_SURF-1,ASSEMBLY_RIGID_PRESS-1_SURF-3)
          THE CONTACT CONSTRAINTS HAVE CONVERGED.

 AVERAGE FORCE                      1.374E+06   TIME AVG. FORCE       9.965E+05
 LARGEST RESIDUAL FORCE            -5.982E+04   AT NODE        123   DOF  1
   INSTANCE: PLATE-1                                                                         
 LARGEST INCREMENT OF DISP.         2.740E-02   AT NODE         74   DOF  1
   INSTANCE: PLATE-1                                                                         
 LARGEST CORRECTION TO DISP.        1.006E-02   AT NODE        122   DOF  1
   INSTANCE: PLATE-1                                                                         
          FORCE     EQUILIBRIUM NOT ACHIEVED WITHIN TOLERANCE.

 AVERAGE MOMENT                     9.092E+08   TIME AVG. MOMENT      6.624E+08
 ALL MOMENT    RESIDUALS ARE ZERO
 LARGEST INCREMENT OF ROTATION     -2.025E-29   AT NODE          1   DOF  6
   INSTANCE: RIGID_PRESS-1                                                                   
 LARGEST CORRECTION TO ROTATION    -2.927E-29   AT NODE          1   DOF  6
   INSTANCE: RIGID_PRESS-1                                                                   
          THE MOMENT    EQUILIBRIUM EQUATIONS HAVE CONVERGED

  NUMBER OF EQUATIONS =       698     NUMBER OF FLOATING PT. OPERATIONS =  3.77E+05

     CHECK POINT   START OF SOLVER    

     CHECK POINT  END OF SOLVER       

       ELAPSED USER TIME (SEC)      =   0.0000    
       ELAPSED SYSTEM TIME (SEC)    =   0.0000    
       ELAPSED TOTAL CPU TIME (SEC) =   0.0000    
       ELAPSED WALLCLOCK TIME (SEC) =          0

               CONVERGENCE CHECKS FOR EQUILIBRIUM ITERATION     4

   MAX. PENETRATION ERROR 14.2109E-15  AT NODE PLATE-1.12 OF CONTACT PAIR 
   (ASSEMBLY_S_SURF-1,ASSEMBLY_RIGID_PRESS-1_SURF-3)
   MAX. CONTACT FORCE ERROR 1.51825E-09 AT NODE PLATE-1.124 OF CONTACT PAIR 
   (ASSEMBLY_S_SURF-1,ASSEMBLY_RIGID_PRESS-1_SURF-3)
          THE CONTACT CONSTRAINTS HAVE CONVERGED.

 AVERAGE FORCE                      1.378E+06   TIME AVG. FORCE       9.975E+05
 LARGEST RESIDUAL FORCE             1.407E+05   AT NODE        123   DOF  1
   INSTANCE: PLATE-1                                                                         
 LARGEST INCREMENT OF DISP.        -3.428E-02   AT NODE         63   DOF  1
   INSTANCE: PLATE-1                                                                         
 LARGEST CORRECTION TO DISP.       -2.374E-02   AT NODE        122   DOF  1
   INSTANCE: PLATE-1                                                                         
          FORCE     EQUILIBRIUM NOT ACHIEVED WITHIN TOLERANCE.

 AVERAGE MOMENT                     9.099E+08   TIME AVG. MOMENT      6.626E+08
 ALL MOMENT    RESIDUALS ARE ZERO
 LARGEST INCREMENT OF ROTATION      4.837E-29   AT NODE          1   DOF  6
   INSTANCE: RIGID_PRESS-1                                                                   
 LARGEST CORRECTION TO ROTATION     6.863E-29   AT NODE          1   DOF  6
   INSTANCE: RIGID_PRESS-1                                                                   
          THE MOMENT    EQUILIBRIUM EQUATIONS HAVE CONVERGED
 

 ***NOTE: THE SOLUTION APPEARS TO BE DIVERGING. CONVERGENCE IS JUDGED UNLIKELY.


  INCREMENT     4 STARTS. ATTEMPT NUMBER  3, TIME INCREMENT  1.373E-04

  NUMBER OF EQUATIONS =       698     NUMBER OF FLOATING PT. OPERATIONS =  3.77E+05

     CHECK POINT   START OF SOLVER    

     CHECK POINT  END OF SOLVER       

       ELAPSED USER TIME (SEC)      =  1.00000E-02
       ELAPSED SYSTEM TIME (SEC)    =   0.0000    
       ELAPSED TOTAL CPU TIME (SEC) =  1.00000E-02
       ELAPSED WALLCLOCK TIME (SEC) =          0

               CONVERGENCE CHECKS FOR EQUILIBRIUM ITERATION     1

   MAX. PENETRATION ERROR 14.2109E-15  AT NODE PLATE-1.2 OF CONTACT PAIR 
   (ASSEMBLY_S_SURF-1,ASSEMBLY_RIGID_PRESS-1_SURF-3)
   MAX. CONTACT FORCE ERROR 1.51825E-09 AT NODE PLATE-1.2 OF CONTACT PAIR 
   (ASSEMBLY_S_SURF-1,ASSEMBLY_RIGID_PRESS-1_SURF-3)
          THE CONTACT CONSTRAINTS HAVE CONVERGED.

 AVERAGE FORCE                      1.296E+06   TIME AVG. FORCE       9.771E+05
 LARGEST RESIDUAL FORCE            -3.913E+04   AT NODE        123   DOF  1
   INSTANCE: PLATE-1                                                                         
 LARGEST INCREMENT OF DISP.         7.160E-03   AT NODE         74   DOF  1
   INSTANCE: PLATE-1                                                                         
 LARGEST CORRECTION TO DISP.        7.160E-03   AT NODE         74   DOF  1
   INSTANCE: PLATE-1                                                                         
          FORCE     EQUILIBRIUM NOT ACHIEVED WITHIN TOLERANCE.

 AVERAGE MOMENT                     9.466E+08   TIME AVG. MOMENT      6.718E+08
 ALL MOMENT    RESIDUALS ARE ZERO
 LARGEST INCREMENT OF ROTATION     -3.595E-30   AT NODE          1   DOF  6
   INSTANCE: RIGID_PRESS-1                                                                   
 LARGEST CORRECTION TO ROTATION    -3.595E-30   AT NODE          1   DOF  6
   INSTANCE: RIGID_PRESS-1                                                                   
          THE MOMENT    EQUILIBRIUM RESPONSE WAS LINEAR IN THIS INCREMENT

  NUMBER OF EQUATIONS =       698     NUMBER OF FLOATING PT. OPERATIONS =  3.77E+05

     CHECK POINT   START OF SOLVER    

     CHECK POINT  END OF SOLVER       

       ELAPSED USER TIME (SEC)      =  1.00000E-02
       ELAPSED SYSTEM TIME (SEC)    =   0.0000    
       ELAPSED TOTAL CPU TIME (SEC) =  1.00000E-02
       ELAPSED WALLCLOCK TIME (SEC) =          0

               CONVERGENCE CHECKS FOR EQUILIBRIUM ITERATION     2

   MAX. PENETRATION ERROR -14.2109E-15  AT NODE PLATE-1.2 OF CONTACT PAIR 
   (ASSEMBLY_S_SURF-1,ASSEMBLY_RIGID_PRESS-1_SURF-3)
   MAX. CONTACT FORCE ERROR -1.51825E-09 AT NODE PLATE-1.2 OF CONTACT PAIR 
   (ASSEMBLY_S_SURF-1,ASSEMBLY_RIGID_PRESS-1_SURF-3)
          THE CONTACT CONSTRAINTS HAVE CONVERGED.

 AVERAGE FORCE                      1.300E+06   TIME AVG. FORCE       9.780E+05
 LARGEST RESIDUAL FORCE             2.715E+04   AT NODE        123   DOF  1
   INSTANCE: PLATE-1                                                                         
 LARGEST INCREMENT OF DISP.        -6.488E-03   AT NODE         63   DOF  1
   INSTANCE: PLATE-1                                                                         
 LARGEST CORRECTION TO DISP.       -4.986E-03   AT NODE        123   DOF  1
   INSTANCE: PLATE-1                                                                         
          FORCE     EQUILIBRIUM NOT ACHIEVED WITHIN TOLERANCE.

 AVERAGE MOMENT                     8.606E+08   TIME AVG. MOMENT      6.503E+08
 ALL MOMENT    RESIDUALS ARE ZERO
 LARGEST INCREMENT OF ROTATION      6.797E-30   AT NODE          1   DOF  6
   INSTANCE: RIGID_PRESS-1                                                                   
 LARGEST CORRECTION TO ROTATION     1.039E-29   AT NODE          1   DOF  6
   INSTANCE: RIGID_PRESS-1                                                                   
          THE MOMENT    EQUILIBRIUM EQUATIONS HAVE CONVERGED

  NUMBER OF EQUATIONS =       698     NUMBER OF FLOATING PT. OPERATIONS =  3.77E+05

     CHECK POINT   START OF SOLVER    

     CHECK POINT  END OF SOLVER       

       ELAPSED USER TIME (SEC)      =  1.00000E-02
       ELAPSED SYSTEM TIME (SEC)    =   0.0000    
       ELAPSED TOTAL CPU TIME (SEC) =  1.00000E-02
       ELAPSED WALLCLOCK TIME (SEC) =          0

               CONVERGENCE CHECKS FOR EQUILIBRIUM ITERATION     3

   MAX. PENETRATION ERROR 14.2109E-15  AT NODE PLATE-1.2 OF CONTACT PAIR 
   (ASSEMBLY_S_SURF-1,ASSEMBLY_RIGID_PRESS-1_SURF-3)
   MAX. CONTACT FORCE ERROR 1.51825E-09 AT NODE PLATE-1.2 OF CONTACT PAIR 
   (ASSEMBLY_S_SURF-1,ASSEMBLY_RIGID_PRESS-1_SURF-3)
          THE CONTACT CONSTRAINTS HAVE CONVERGED.

 AVERAGE FORCE                      1.300E+06   TIME AVG. FORCE       9.780E+05
 LARGEST RESIDUAL FORCE            -4.190E+04   AT NODE        123   DOF  1
   INSTANCE: PLATE-1                                                                         
 LARGEST INCREMENT OF DISP.         9.630E-03   AT NODE         74   DOF  1
   INSTANCE: PLATE-1                                                                         
 LARGEST CORRECTION TO DISP.        7.457E-03   AT NODE        122   DOF  1
   INSTANCE: PLATE-1                                                                         
          FORCE     EQUILIBRIUM NOT ACHIEVED WITHIN TOLERANCE.

 AVERAGE MOMENT                     8.603E+08   TIME AVG. MOMENT      6.502E+08
 ALL MOMENT    RESIDUALS ARE ZERO
 LARGEST INCREMENT OF ROTATION     -1.267E-29   AT NODE          1   DOF  6
   INSTANCE: RIGID_PRESS-1                                                                   
 LARGEST CORRECTION TO ROTATION    -1.947E-29   AT NODE          1   DOF  6
   INSTANCE: RIGID_PRESS-1                                                                   
          THE MOMENT    EQUILIBRIUM EQUATIONS HAVE CONVERGED

  NUMBER OF EQUATIONS =       698     NUMBER OF FLOATING PT. OPERATIONS =  3.77E+05

     CHECK POINT   START OF SOLVER    

     CHECK POINT  END OF SOLVER       

       ELAPSED USER TIME (SEC)      =  1.00000E-02
       ELAPSED SYSTEM TIME (SEC)    =   0.0000    
       ELAPSED TOTAL CPU TIME (SEC) =  1.00000E-02
       ELAPSED WALLCLOCK TIME (SEC) =          0

               CONVERGENCE CHECKS FOR EQUILIBRIUM ITERATION     4

   MAX. PENETRATION ERROR -14.2109E-15  AT NODE PLATE-1.2 OF CONTACT PAIR 
   (ASSEMBLY_S_SURF-1,ASSEMBLY_RIGID_PRESS-1_SURF-3)
   MAX. CONTACT FORCE ERROR -1.51825E-09 AT NODE PLATE-1.2 OF CONTACT PAIR 
   (ASSEMBLY_S_SURF-1,ASSEMBLY_RIGID_PRESS-1_SURF-3)
          THE CONTACT CONSTRAINTS HAVE CONVERGED.

 AVERAGE FORCE                      1.303E+06   TIME AVG. FORCE       9.787E+05
 LARGEST RESIDUAL FORCE             7.520E+04   AT NODE        123   DOF  1
   INSTANCE: PLATE-1                                                                         
 LARGEST INCREMENT OF DISP.        -1.181E-02   AT NODE         63   DOF  1
   INSTANCE: PLATE-1                                                                         
 LARGEST CORRECTION TO DISP.       -1.339E-02   AT NODE        122   DOF  1
   INSTANCE: PLATE-1                                                                         
          FORCE     EQUILIBRIUM NOT ACHIEVED WITHIN TOLERANCE.

 AVERAGE MOMENT                     8.607E+08   TIME AVG. MOMENT      6.503E+08
 ALL MOMENT    RESIDUALS ARE ZERO
 LARGEST INCREMENT OF ROTATION      2.370E-29   AT NODE          1   DOF  6
   INSTANCE: RIGID_PRESS-1                                                                   
 LARGEST CORRECTION TO ROTATION     3.637E-29   AT NODE          1   DOF  6
   INSTANCE: RIGID_PRESS-1                                                                   
          THE MOMENT    EQUILIBRIUM EQUATIONS HAVE CONVERGED
 

 ***NOTE: THE SOLUTION APPEARS TO BE DIVERGING. CONVERGENCE IS JUDGED UNLIKELY.


  INCREMENT     4 STARTS. ATTEMPT NUMBER  4, TIME INCREMENT  3.433E-05

  NUMBER OF EQUATIONS =       698     NUMBER OF FLOATING PT. OPERATIONS =  3.77E+05

     CHECK POINT   START OF SOLVER    

     CHECK POINT  END OF SOLVER       

       ELAPSED USER TIME (SEC)      =   0.0000    
       ELAPSED SYSTEM TIME (SEC)    =   0.0000    
       ELAPSED TOTAL CPU TIME (SEC) =   0.0000    
       ELAPSED WALLCLOCK TIME (SEC) =          0

               CONVERGENCE CHECKS FOR EQUILIBRIUM ITERATION     1

   MAX. PENETRATION ERROR 14.2109E-15  AT NODE PLATE-1.2 OF CONTACT PAIR 
   (ASSEMBLY_S_SURF-1,ASSEMBLY_RIGID_PRESS-1_SURF-3)
   MAX. CONTACT FORCE ERROR 1.51825E-09 AT NODE PLATE-1.2 OF CONTACT PAIR 
   (ASSEMBLY_S_SURF-1,ASSEMBLY_RIGID_PRESS-1_SURF-3)
          THE CONTACT CONSTRAINTS HAVE CONVERGED.

 AVERAGE FORCE                      1.284E+06   TIME AVG. FORCE       9.740E+05
 LARGEST RESIDUAL FORCE            -1.452E+04   AT NODE        123   DOF  1
   INSTANCE: PLATE-1                                                                         
 LARGEST INCREMENT OF DISP.         2.591E-03   AT NODE         75   DOF  1
   INSTANCE: PLATE-1                                                                         
 LARGEST CORRECTION TO DISP.        2.591E-03   AT NODE         75   DOF  1
   INSTANCE: PLATE-1                                                                         
          FORCE     EQUILIBRIUM NOT ACHIEVED WITHIN TOLERANCE.

 AVERAGE MOMENT                     9.317E+08   TIME AVG. MOMENT      6.681E+08
 ALL MOMENT    RESIDUALS ARE ZERO
 LARGEST INCREMENT OF ROTATION     -2.389E-30   AT NODE          1   DOF  6
   INSTANCE: RIGID_PRESS-1                                                                   
 LARGEST CORRECTION TO ROTATION    -2.389E-30   AT NODE          1   DOF  6
   INSTANCE: RIGID_PRESS-1                                                                   
          THE MOMENT    EQUILIBRIUM RESPONSE WAS LINEAR IN THIS INCREMENT

  NUMBER OF EQUATIONS =       698     NUMBER OF FLOATING PT. OPERATIONS =  3.77E+05

     CHECK POINT   START OF SOLVER    

     CHECK POINT  END OF SOLVER       

       ELAPSED USER TIME (SEC)      =  1.00000E-02
       ELAPSED SYSTEM TIME (SEC)    =   0.0000    
       ELAPSED TOTAL CPU TIME (SEC) =  1.00000E-02
       ELAPSED WALLCLOCK TIME (SEC) =          0

               CONVERGENCE CHECKS FOR EQUILIBRIUM ITERATION     2

   MAX. PENETRATION ERROR -14.2109E-15  AT NODE PLATE-1.2 OF CONTACT PAIR 
   (ASSEMBLY_S_SURF-1,ASSEMBLY_RIGID_PRESS-1_SURF-3)
   MAX. CONTACT FORCE ERROR -1.51825E-09 AT NODE PLATE-1.2 OF CONTACT PAIR 
   (ASSEMBLY_S_SURF-1,ASSEMBLY_RIGID_PRESS-1_SURF-3)
          THE CONTACT CONSTRAINTS HAVE CONVERGED.

 AVERAGE FORCE                      1.281E+06   TIME AVG. FORCE       9.733E+05
 LARGEST RESIDUAL FORCE             1.485E+04   AT NODE        123   DOF  1
   INSTANCE: PLATE-1                                                                         
 LARGEST INCREMENT OF DISP.        -2.162E-03   AT NODE         63   DOF  1
   INSTANCE: PLATE-1                                                                         
 LARGEST CORRECTION TO DISP.       -2.716E-03   AT NODE        123   DOF  1
   INSTANCE: PLATE-1                                                                         
          FORCE     EQUILIBRIUM NOT ACHIEVED WITHIN TOLERANCE.

 AVERAGE MOMENT                     9.318E+08   TIME AVG. MOMENT      6.681E+08
 ALL MOMENT    RESIDUALS ARE ZERO
 LARGEST INCREMENT OF ROTATION      4.179E-30   AT NODE          1   DOF  6
   INSTANCE: RIGID_PRESS-1                                                                   
 LARGEST CORRECTION TO ROTATION     6.568E-30   AT NODE          1   DOF  6
   INSTANCE: RIGID_PRESS-1                                                                   
          THE MOMENT    EQUILIBRIUM EQUATIONS HAVE CONVERGED

  NUMBER OF EQUATIONS =       698     NUMBER OF FLOATING PT. OPERATIONS =  3.77E+05

     CHECK POINT   START OF SOLVER    

     CHECK POINT  END OF SOLVER       

       ELAPSED USER TIME (SEC)      =  1.00000E-02
       ELAPSED SYSTEM TIME (SEC)    =   0.0000    
       ELAPSED TOTAL CPU TIME (SEC) =  1.00000E-02
       ELAPSED WALLCLOCK TIME (SEC) =          0

               CONVERGENCE CHECKS FOR EQUILIBRIUM ITERATION     3

   MAX. PENETRATION ERROR 14.2109E-15  AT NODE PLATE-1.2 OF CONTACT PAIR 
   (ASSEMBLY_S_SURF-1,ASSEMBLY_RIGID_PRESS-1_SURF-3)
   MAX. CONTACT FORCE ERROR 1.51825E-09 AT NODE PLATE-1.2 OF CONTACT PAIR 
   (ASSEMBLY_S_SURF-1,ASSEMBLY_RIGID_PRESS-1_SURF-3)
          THE CONTACT CONSTRAINTS HAVE CONVERGED.

 AVERAGE FORCE                      1.282E+06   TIME AVG. FORCE       9.736E+05
 LARGEST RESIDUAL FORCE            -2.436E+04   AT NODE        123   DOF  1
   INSTANCE: PLATE-1                                                                         
 LARGEST INCREMENT OF DISP.         4.188E-03   AT NODE         75   DOF  1
   INSTANCE: PLATE-1                                                                         
 LARGEST CORRECTION TO DISP.        4.399E-03   AT NODE        122   DOF  1
   INSTANCE: PLATE-1                                                                         
          FORCE     EQUILIBRIUM NOT ACHIEVED WITHIN TOLERANCE.

 AVERAGE MOMENT                     8.470E+08   TIME AVG. MOMENT      6.469E+08
 ALL MOMENT    RESIDUALS ARE ZERO
 LARGEST INCREMENT OF ROTATION     -7.474E-30   AT NODE          1   DOF  6
   INSTANCE: RIGID_PRESS-1                                                                   
 LARGEST CORRECTION TO ROTATION    -1.165E-29   AT NODE          1   DOF  6
   INSTANCE: RIGID_PRESS-1                                                                   
          THE MOMENT    EQUILIBRIUM EQUATIONS HAVE CONVERGED

  NUMBER OF EQUATIONS =       698     NUMBER OF FLOATING PT. OPERATIONS =  3.77E+05

     CHECK POINT   START OF SOLVER    

     CHECK POINT  END OF SOLVER       

       ELAPSED USER TIME (SEC)      =   0.0000    
       ELAPSED SYSTEM TIME (SEC)    =   0.0000    
       ELAPSED TOTAL CPU TIME (SEC) =   0.0000    
       ELAPSED WALLCLOCK TIME (SEC) =          0

               CONVERGENCE CHECKS FOR EQUILIBRIUM ITERATION     4

   MAX. PENETRATION ERROR -14.2109E-15  AT NODE PLATE-1.2 OF CONTACT PAIR 
   (ASSEMBLY_S_SURF-1,ASSEMBLY_RIGID_PRESS-1_SURF-3)
   MAX. CONTACT FORCE ERROR -1.51825E-09 AT NODE PLATE-1.2 OF CONTACT PAIR 
   (ASSEMBLY_S_SURF-1,ASSEMBLY_RIGID_PRESS-1_SURF-3)
          THE CONTACT CONSTRAINTS HAVE CONVERGED.

 AVERAGE FORCE                      1.282E+06   TIME AVG. FORCE       9.736E+05
 LARGEST RESIDUAL FORCE             4.269E+04   AT NODE        123   DOF  1
   INSTANCE: PLATE-1                                                                         
 LARGEST INCREMENT OF DISP.        -5.028E-03   AT NODE         62   DOF  1
   INSTANCE: PLATE-1                                                                         
 LARGEST CORRECTION TO DISP.       -7.713E-03   AT NODE        122   DOF  1
   INSTANCE: PLATE-1                                                                         
          FORCE     EQUILIBRIUM NOT ACHIEVED WITHIN TOLERANCE.

 AVERAGE MOMENT                     8.472E+08   TIME AVG. MOMENT      6.469E+08
 ALL MOMENT    RESIDUALS ARE ZERO
 LARGEST INCREMENT OF ROTATION      1.331E-29   AT NODE          1   DOF  6
   INSTANCE: RIGID_PRESS-1                                                                   
 LARGEST CORRECTION TO ROTATION     2.078E-29   AT NODE          1   DOF  6
   INSTANCE: RIGID_PRESS-1                                                                   
          THE MOMENT    EQUILIBRIUM EQUATIONS HAVE CONVERGED
 

 ***NOTE: THE SOLUTION APPEARS TO BE DIVERGING. CONVERGENCE IS JUDGED UNLIKELY.


  INCREMENT     4 STARTS. ATTEMPT NUMBER  5, TIME INCREMENT  1.000E-05

  NUMBER OF EQUATIONS =       698     NUMBER OF FLOATING PT. OPERATIONS =  3.77E+05

     CHECK POINT   START OF SOLVER    

     CHECK POINT  END OF SOLVER       

       ELAPSED USER TIME (SEC)      =   0.0000    
       ELAPSED SYSTEM TIME (SEC)    =   0.0000    
       ELAPSED TOTAL CPU TIME (SEC) =   0.0000    
       ELAPSED WALLCLOCK TIME (SEC) =          0

               CONVERGENCE CHECKS FOR EQUILIBRIUM ITERATION     1

   MAX. PENETRATION ERROR -28.4217E-15  AT NODE PLATE-1.13 OF CONTACT PAIR 
   (ASSEMBLY_S_SURF-1,ASSEMBLY_RIGID_PRESS-1_SURF-3)
   MAX. CONTACT FORCE ERROR -3.03651E-09 AT NODE PLATE-1.13 OF CONTACT PAIR 
   (ASSEMBLY_S_SURF-1,ASSEMBLY_RIGID_PRESS-1_SURF-3)
          THE CONTACT CONSTRAINTS HAVE CONVERGED.

 AVERAGE FORCE                      1.276E+06   TIME AVG. FORCE       9.720E+05
 LARGEST RESIDUAL FORCE            -8.708E+03   AT NODE        123   DOF  1
   INSTANCE: PLATE-1                                                                         
 LARGEST INCREMENT OF DISP.         1.547E-03   AT NODE        122   DOF  1
   INSTANCE: PLATE-1                                                                         
 LARGEST CORRECTION TO DISP.        1.547E-03   AT NODE        122   DOF  1
   INSTANCE: PLATE-1                                                                         
          FORCE     EQUILIBRIUM NOT ACHIEVED WITHIN TOLERANCE.

 AVERAGE MOMENT                     9.282E+08   TIME AVG. MOMENT      6.672E+08
 ALL MOMENT    RESIDUALS ARE ZERO
 LARGEST INCREMENT OF ROTATION     -2.104E-30   AT NODE          1   DOF  6
   INSTANCE: RIGID_PRESS-1                                                                   
 LARGEST CORRECTION TO ROTATION    -2.104E-30   AT NODE          1   DOF  6
   INSTANCE: RIGID_PRESS-1                                                                   
          THE MOMENT    EQUILIBRIUM RESPONSE WAS LINEAR IN THIS INCREMENT

  NUMBER OF EQUATIONS =       698     NUMBER OF FLOATING PT. OPERATIONS =  3.77E+05

     CHECK POINT   START OF SOLVER    

     CHECK POINT  END OF SOLVER       

       ELAPSED USER TIME (SEC)      =   0.0000    
       ELAPSED SYSTEM TIME (SEC)    =   0.0000    
       ELAPSED TOTAL CPU TIME (SEC) =   0.0000    
       ELAPSED WALLCLOCK TIME (SEC) =          0

               CONVERGENCE CHECKS FOR EQUILIBRIUM ITERATION     2

   MAX. PENETRATION ERROR 14.2109E-15  AT NODE PLATE-1.12 OF CONTACT PAIR 
   (ASSEMBLY_S_SURF-1,ASSEMBLY_RIGID_PRESS-1_SURF-3)
   MAX. CONTACT FORCE ERROR 1.51825E-09 AT NODE PLATE-1.14 OF CONTACT PAIR 
   (ASSEMBLY_S_SURF-1,ASSEMBLY_RIGID_PRESS-1_SURF-3)
          THE CONTACT CONSTRAINTS HAVE CONVERGED.

 AVERAGE FORCE                      1.276E+06   TIME AVG. FORCE       9.721E+05
 LARGEST RESIDUAL FORCE             1.205E+04   AT NODE        123   DOF  1
   INSTANCE: PLATE-1                                                                         
 LARGEST INCREMENT OF DISP.        -1.151E-03   AT NODE         62   DOF  1
   INSTANCE: PLATE-1                                                                         
 LARGEST CORRECTION TO DISP.       -2.188E-03   AT NODE        123   DOF  1
   INSTANCE: PLATE-1                                                                         
          FORCE     EQUILIBRIUM NOT ACHIEVED WITHIN TOLERANCE.

 AVERAGE MOMENT                     9.283E+08   TIME AVG. MOMENT      6.672E+08
 ALL MOMENT    RESIDUALS ARE ZERO
 LARGEST INCREMENT OF ROTATION      3.610E-30   AT NODE          1   DOF  6
   INSTANCE: RIGID_PRESS-1                                                                   
 LARGEST CORRECTION TO ROTATION     5.714E-30   AT NODE          1   DOF  6
   INSTANCE: RIGID_PRESS-1                                                                   
          THE MOMENT    EQUILIBRIUM EQUATIONS HAVE CONVERGED

  NUMBER OF EQUATIONS =       698     NUMBER OF FLOATING PT. OPERATIONS =  3.77E+05

     CHECK POINT   START OF SOLVER    

     CHECK POINT  END OF SOLVER       

       ELAPSED USER TIME (SEC)      =   0.0000    
       ELAPSED SYSTEM TIME (SEC)    =   0.0000    
       ELAPSED TOTAL CPU TIME (SEC) =   0.0000    
       ELAPSED WALLCLOCK TIME (SEC) =          0

               CONVERGENCE CHECKS FOR EQUILIBRIUM ITERATION     3

   MAX. PENETRATION ERROR 14.2109E-15  AT NODE PLATE-1.122 OF CONTACT PAIR 
   (ASSEMBLY_S_SURF-1,ASSEMBLY_RIGID_PRESS-1_SURF-3)
   MAX. CONTACT FORCE ERROR 759.127E-12   AT NODE PLATE-1.122 OF CONTACT PAIR 
   (ASSEMBLY_S_SURF-1,ASSEMBLY_RIGID_PRESS-1_SURF-3)
          THE CONTACT CONSTRAINTS HAVE CONVERGED.

 AVERAGE FORCE                      1.276E+06   TIME AVG. FORCE       9.721E+05
 LARGEST RESIDUAL FORCE            -2.052E+04   AT NODE        123   DOF  1
   INSTANCE: PLATE-1                                                                         
 LARGEST INCREMENT OF DISP.         3.075E-03   AT NODE        122   DOF  1
   INSTANCE: PLATE-1                                                                         
 LARGEST CORRECTION TO DISP.        3.716E-03   AT NODE        122   DOF  1
   INSTANCE: PLATE-1                                                                         
          FORCE     EQUILIBRIUM NOT ACHIEVED WITHIN TOLERANCE.

 AVERAGE MOMENT                     8.438E+08   TIME AVG. MOMENT      6.461E+08
 ALL MOMENT    RESIDUALS ARE ZERO
 LARGEST INCREMENT OF ROTATION     -6.363E-30   AT NODE          1   DOF  6
   INSTANCE: RIGID_PRESS-1                                                                   
 LARGEST CORRECTION TO ROTATION    -9.973E-30   AT NODE          1   DOF  6
   INSTANCE: RIGID_PRESS-1                                                                   
          THE MOMENT    EQUILIBRIUM EQUATIONS HAVE CONVERGED

  NUMBER OF EQUATIONS =       698     NUMBER OF FLOATING PT. OPERATIONS =  3.77E+05

     CHECK POINT   START OF SOLVER    

     CHECK POINT  END OF SOLVER       

       ELAPSED USER TIME (SEC)      =   0.0000    
       ELAPSED SYSTEM TIME (SEC)    =   0.0000    
       ELAPSED TOTAL CPU TIME (SEC) =   0.0000    
       ELAPSED WALLCLOCK TIME (SEC) =          0

               CONVERGENCE CHECKS FOR EQUILIBRIUM ITERATION     4

   MAX. PENETRATION ERROR -14.2109E-15  AT NODE PLATE-1.122 OF CONTACT PAIR 
   (ASSEMBLY_S_SURF-1,ASSEMBLY_RIGID_PRESS-1_SURF-3)
   MAX. CONTACT FORCE ERROR -759.127E-12   AT NODE PLATE-1.122 OF CONTACT PAIR 
   (ASSEMBLY_S_SURF-1,ASSEMBLY_RIGID_PRESS-1_SURF-3)
          THE CONTACT CONSTRAINTS HAVE CONVERGED.

 AVERAGE FORCE                      1.277E+06   TIME AVG. FORCE       9.723E+05
 LARGEST RESIDUAL FORCE             3.590E+04   AT NODE        123   DOF  1
   INSTANCE: PLATE-1                                                                         
 LARGEST INCREMENT OF DISP.        -3.633E-03   AT NODE         15   DOF  1
   INSTANCE: PLATE-1                                                                         
 LARGEST CORRECTION TO DISP.       -6.505E-03   AT NODE        122   DOF  1
   INSTANCE: PLATE-1                                                                         
          FORCE     EQUILIBRIUM NOT ACHIEVED WITHIN TOLERANCE.

 AVERAGE MOMENT                     8.440E+08   TIME AVG. MOMENT      6.461E+08
 ALL MOMENT    RESIDUALS ARE ZERO
 LARGEST INCREMENT OF ROTATION      1.120E-29   AT NODE          1   DOF  6
   INSTANCE: RIGID_PRESS-1                                                                   
 LARGEST CORRECTION TO ROTATION     1.756E-29   AT NODE          1   DOF  6
   INSTANCE: RIGID_PRESS-1                                                                   
          THE MOMENT    EQUILIBRIUM EQUATIONS HAVE CONVERGED
 

 ***NOTE: THE SOLUTION APPEARS TO BE DIVERGING. CONVERGENCE IS JUDGED UNLIKELY.
 

 ***ERROR: TIME INCREMENT REQUIRED IS LESS THAN THE MINIMUM SPECIFIED
 

 ***ERROR: TOO MANY ATTEMPTS MADE FOR THIS INCREMENT

 ***ERROR: THE ANALYSIS HAS BEEN TERMINATED DUE TO PREVIOUS ERRORS. ALL OUTPUT 
           REQUESTS HAVE BEEN WRITTEN FOR THE LAST CONVERGED INCREMENT.



     ANALYSIS SUMMARY:
     TOTAL OF          4  INCREMENTS
                      10  CUTBACKS IN AUTOMATIC INCREMENTATION
                      44  ITERATIONS INCLUDING CONTACT ITERATIONS IF PRESENT
                      44  PASSES THROUGH THE EQUATION SOLVER OF WHICH 
                      44  INVOLVE MATRIX DECOMPOSITION, INCLUDING
                       0  DECOMPOSITION(S) OF THE MASS MATRIX
                       1  REORDERING OF EQUATIONS TO MINIMIZE WAVEFRONT
                       0  ADDITIONAL RESIDUAL EVALUATIONS FOR LINE SEARCHES
                       0  ADDITIONAL OPERATOR EVALUATIONS FOR LINE SEARCHES
                       2  WARNING MESSAGES DURING USER INPUT PROCESSING
                      34  WARNING MESSAGES DURING ANALYSIS
                       0  ANALYSIS WARNINGS ARE NUMERICAL PROBLEM MESSAGES
                      16  ANALYSIS WARNINGS ARE NEGATIVE EIGENVALUE MESSAGES
                       2  ERROR MESSAGES



     JOB TIME SUMMARY
       USER TIME (SEC)      =   1.7400    
       SYSTEM TIME (SEC)    =  0.12000    
       TOTAL CPU TIME (SEC) =   1.8600    
       WALLCLOCK TIME (SEC) =          2
