 Abaqus/Standard 3DEXPERIENCE R2016x                  DATE 30-Apr-2018 TIME 14:22:11
 SUMMARY OF JOB INFORMATION:
 STEP  INC ATT SEVERE EQUIL TOTAL  TOTAL      STEP       INC OF       DOF    IF
               DISCON ITERS ITERS  TIME/    TIME/LPF    TIME/LPF    MONITOR RIKS
               ITERS               FREQ
   1     1   1U    0     1     1  0.00       0.00       0.1000    
   1     1   2U    0     2     2  0.00       0.00       0.02500   
   1     1   3     0     5     5  0.00625    0.00625    0.006250  
   1     2   1U    5     1     6  0.00625    0.00625    0.006250  
   1     2   2     0     3     3  0.00781    0.00781    0.001563  
   1     3   1U    0     5     5  0.00781    0.00781    0.001563  
   1     3   2     0     3     3  0.00820    0.00820    0.0003906 
   1     4   1     0     3     3  0.00879    0.00879    0.0005859 
   1     5   1     0     2     2  0.00967    0.00967    0.0008789 
   1     6   1     1     2     3  0.0110     0.0110     0.001318  
   1     7   1     0     3     3  0.0130     0.0130     0.001978  
   1     8   1     0     2     2  0.0159     0.0159     0.002966  
   1     9   1     0     2     2  0.0204     0.0204     0.004449  
   1    10   1     0     2     2  0.0271     0.0271     0.006674  
   1    11   1     0     2     2  0.0371     0.0371     0.01001   
   1    12   1U    1     5     6  0.0371     0.0371     0.01502   
   1    12   2     0     2     2  0.0408     0.0408     0.003754  
   1    13   1     0     2     2  0.0465     0.0465     0.005631  
   1    14   1U    1     2     3  0.0465     0.0465     0.008447  
   1    14   2     0     1     1  0.0486     0.0486     0.002112  
   1    15   1U    2     1     3  0.0486     0.0486     0.003168  
   1    15   2     0     1     1  0.0494     0.0494     0.0007919 
   1    16   1U    2     2     4  0.0494     0.0494     0.001188  
   1    16   2     0     3     3  0.0497     0.0497     0.0002970 
   1    17   1     0     3     3  0.0501     0.0501     0.0004454 
   1    18   1     0     2     2  0.0508     0.0508     0.0006682 
   1    19   1     0     3     3  0.0518     0.0518     0.001002  
   1    20   1     1     3     4  0.0533     0.0533     0.001503  
   1    21   1     0     3     3  0.0555     0.0555     0.002255  
   1    22   1     0     2     2  0.0589     0.0589     0.003383  
   1    23   1     0     2     2  0.0640     0.0640     0.005074  
   1    24   1     0     2     2  0.0716     0.0716     0.007611  
   1    25   1     0     3     3  0.0830     0.0830     0.01142   
   1    26   1U    1     2     3  0.0830     0.0830     0.01699   
   1    26   2     0     2     2  0.0873     0.0873     0.004248  
   1    27   1U    1     1     2  0.0873     0.0873     0.006371  
   1    27   2     0     1     1  0.0889     0.0889     0.001593  
   1    28   1U    3     1     4  0.0889     0.0889     0.002389  
   1    28   2U    0     2     2  0.0889     0.0889     0.0005973 
   1    28   3     0     3     3  0.0890     0.0890     0.0001493 
   1    29   1U    3     3     6  0.0890     0.0890     0.0002240 
   1    29   2     0     1     1  0.0891     0.0891     5.600e-05 
   1    30   1U    0     7     7  0.0891     0.0891     8.400e-05 
   1    30   2     0     1     1  0.0891     0.0891     2.100e-05 
   1    31   1U    0     7     7  0.0891     0.0891     3.150e-05 
   1    31   2     0     1     1  0.0891     0.0891     7.875e-06 
   1    32   1U    0     4     4  0.0891     0.0891     1.181e-05 
   1    32   2     0     1     1  0.0891     0.0891     2.953e-06 
   1    33   1     0     1     1  0.0891     0.0891     4.430e-06 
   1    34   1U    0     9     9  0.0891     0.0891     6.644e-06 
   1    34   2     0     1     1  0.0891     0.0891     1.661e-06 
   1    35   1U    0     5     5  0.0891     0.0891     2.492e-06 
   1    35   2U    0     7     7  0.0891     0.0891     1.000e-06 
                          
 THE ANALYSIS HAS NOT BEEN COMPLETED
