1

   Abaqus 3DEXPERIENCE R2016x                                  Date 30-Apr-2018   Time 14:22:11
   For use at UNIVERSITAET BERN under license from Dassault Systemes or its subsidiary.

                                                                                 
                                                                                 
 STEP    1     INCREMENT     1     STEP TIME    0.00    


                        S T E P       1     S T A T I C   A N A L Y S I S


                                                                                          

     AUTOMATIC TIME CONTROL WITH -
          A SUGGESTED INITIAL TIME INCREMENT OF                0.100    
          AND A TOTAL TIME PERIOD OF                           0.100    
          THE MINIMUM TIME INCREMENT ALLOWED IS                1.000E-06
          THE MAXIMUM TIME INCREMENT ALLOWED IS                0.100    

     LINEAR EQUATION SOLVER TYPE         DIRECT SPARSE

 CONVERGENCE TOLERANCE PARAMETERS FOR FORCE    
     CRITERION FOR RESIDUAL FORCE     FOR A NONLINEAR PROBLEM          5.000E-03
     CRITERION FOR DISP.    CORRECTION IN A NONLINEAR PROBLEM          1.000E-02
     INITIAL VALUE OF TIME AVERAGE FORCE                               1.000E-02
     AVERAGE FORCE     IS TIME AVERAGE FORCE    
     ALTERNATE CRIT. FOR RESIDUAL FORCE     FOR A NONLINEAR PROBLEM    2.000E-02
     CRITERION FOR ZERO FORCE     RELATIVE TO TIME AVRG. FORCE         1.000E-05
     CRITERION FOR RESIDUAL FORCE     WHEN THERE IS ZERO FLUX          1.000E-05
     CRITERION FOR DISP.    CORRECTION WHEN THERE IS ZERO FLUX         1.000E-03
     CRITERION FOR RESIDUAL FORCE     FOR A LINEAR INCREMENT           1.000E-08
     FIELD CONVERSION RATIO                                             1.00    
     CRITERION FOR ZERO FORCE     REL. TO TIME AVRG. MAX. FORCE        1.000E-05
     CRITERION FOR ZERO DISP.    RELATIVE TO CHARACTERISTIC LENGTH     1.000E-08

 CONVERGENCE TOLERANCE PARAMETERS FOR MOMENT   
     CRITERION FOR RESIDUAL MOMENT    FOR A NONLINEAR PROBLEM          5.000E-03
     CRITERION FOR ROTATION CORRECTION IN A NONLINEAR PROBLEM          1.000E-02
     INITIAL VALUE OF TIME AVERAGE MOMENT                              1.000E-02
     AVERAGE MOMENT    IS TIME AVERAGE MOMENT   
     ALTERNATE CRIT. FOR RESIDUAL MOMENT    FOR A NONLINEAR PROBLEM    2.000E-02
     CRITERION FOR ZERO MOMENT    RELATIVE TO TIME AVRG. MOMENT        1.000E-05
     CRITERION FOR RESIDUAL MOMENT    WHEN THERE IS ZERO FLUX          1.000E-05
     CRITERION FOR ROTATION CORRECTION WHEN THERE IS ZERO FLUX         1.000E-03
     CRITERION FOR RESIDUAL MOMENT    FOR A LINEAR INCREMENT           1.000E-08
     FIELD CONVERSION RATIO                                             1.00    
     CRITERION FOR ZERO MOMENT    REL. TO TIME AVRG. MAX. MOMENT       1.000E-05

     VOLUMETRIC STRAIN COMPATIBILITY TOLERANCE FOR HYBRID SOLIDS       1.000E-05
     AXIAL STRAIN COMPATIBILITY TOLERANCE FOR HYBRID BEAMS             1.000E-05
     TRANS. SHEAR STRAIN COMPATIBILITY TOLERANCE FOR HYBRID BEAMS      1.000E-05
     SOFT CONTACT CONSTRAINT COMPATIBILITY TOLERANCE FOR P>P0          5.000E-03
     SOFT CONTACT CONSTRAINT COMPATIBILITY TOLERANCE FOR P=0.0         0.100    
     CONTACT FORCE ERROR TOLERANCE FOR CONVERT SDI=YES                 1.00    
     DISPLACEMENT COMPATIBILITY TOLERANCE FOR DCOUP ELEMENTS           1.000E-05
     ROTATION COMPATIBILITY TOLERANCE FOR DCOUP ELEMENTS               1.000E-05

 EQUILIBRIUM WILL BE CHECKED FOR SEVERE DISCONTINUITY ITERATIONS

 TIME INCREMENTATION CONTROL PARAMETERS:
     FIRST EQUILIBRIUM ITERATION FOR CONSECUTIVE DIVERGENCE CHECK              4
     EQUILIBRIUM ITERATION AT WHICH LOG. CONVERGENCE RATE CHECK BEGINS         8
     EQUILIBRIUM ITERATION AFTER WHICH ALTERNATE RESIDUAL IS USED              9
     MAXIMUM EQUILIBRIUM ITERATIONS ALLOWED                                   16
     EQUILIBRIUM ITERATION COUNT FOR CUT-BACK IN NEXT INCREMENT               10
     MAXIMUM EQUILIB. ITERS IN TWO INCREMENTS FOR TIME INCREMENT INCREASE      4
     MAXIMUM ITERATIONS FOR SEVERE DISCONTINUITIES                            50
     MAXIMUM CUT-BACKS ALLOWED IN AN INCREMENT                                 5
     MAXIMUM DISCON. ITERS IN TWO INCREMENTS FOR TIME INCREMENT INCREASE      50
     MAXIMUM CONTACT AUGMENTATIONS FOR *SURFACE BEHAVIOR,AUGMENTED LAGRANGE   50
     CUT-BACK FACTOR AFTER DIVERGENCE                                 0.2500    
     CUT-BACK FACTOR FOR TOO SLOW CONVERGENCE                         0.5000    
     CUT-BACK FACTOR AFTER TOO MANY EQUILIBRIUM ITERATIONS            0.7500    
     CUT-BACK FACTOR AFTER TOO MANY SEVERE DISCONTINUITY ITERATIONS   0.2500    
     CUT-BACK FACTOR AFTER PROBLEMS IN ELEMENT ASSEMBLY               0.2500    
     INCREASE FACTOR AFTER TWO INCREMENTS THAT CONVERGE QUICKLY        1.500    
     MAX. TIME INCREMENT INCREASE FACTOR ALLOWED                       1.500    
     MAX. TIME INCREMENT INCREASE FACTOR ALLOWED (DYNAMICS)            1.250    
     MAX. TIME INCREMENT INCREASE FACTOR ALLOWED (DIFFUSION)           2.000    
     MINIMUM TIME INCREMENT RATIO FOR EXTRAPOLATION TO OCCUR          0.1000    
     MAX. RATIO OF TIME INCREMENT TO STABILITY LIMIT                   1.000    
     FRACTION OF STABILITY LIMIT FOR NEW TIME INCREMENT               0.9500    
     TIME INCREMENT INCREASE FACTOR BEFORE A TIME POINT                1.000    
     GLOBAL STABILIZATION CONTROL IS NOT USED

          PRINT OF INCREMENT NUMBER, TIME, ETC., EVERY    1  INCREMENTS

     THE MAXIMUM NUMBER OF INCREMENTS IN THIS STEP IS                    5000

          LARGE DISPLACEMENT THEORY WILL BE USED

     LINEAR EXTRAPOLATION WILL BE USED

     CHARACTERISTIC ELEMENT LENGTH      19.3    

     DETAILS REGARDING ACTUAL SOLUTION WAVEFRONT REQUESTED

     DETAILED OUTPUT OF DIAGNOSTICS TO DATABASE REQUESTED

     PRINT OF INCREMENT NUMBER, TIME, ETC., TO THE MESSAGE FILE EVERY     1  INCREMENTS

     COLLECTING MODEL CONSTRAINT INFORMATION FOR OVERCONSTRAINT CHECKS

     COLLECTING STEP CONSTRAINT INFORMATION FOR OVERCONSTRAINT CHECKS


  INCREMENT     1 STARTS. ATTEMPT NUMBER  1, TIME INCREMENT  0.100    

  NUMBER OF EQUATIONS =       698     NUMBER OF FLOATING PT. OPERATIONS =  3.84E+05

     CHECK POINT   START OF SOLVER    

     CHECK POINT  END OF SOLVER       

       ELAPSED USER TIME (SEC)      =  1.00000E-02
       ELAPSED SYSTEM TIME (SEC)    =  1.00000E-02
       ELAPSED TOTAL CPU TIME (SEC) =  2.00000E-02
       ELAPSED WALLCLOCK TIME (SEC) =          0

 ***WARNING: THE STRAIN INCREMENT HAS EXCEEDED FIFTY TIMES THE STRAIN TO CAUSE 
             FIRST YIELD AT 300 POINTS

 ***WARNING: THE STRAIN INCREMENT IS SO LARGE THAT THE PROGRAM WILL NOT ATTEMPT 
             THE PLASTICITY CALCULATION AT 196 POINTS
 

 ***NOTE: MATERIAL CALCULATIONS FAILED TO CONVERGE OR WERE NOT ATTEMPTED AT ONE 
          OR MORE POINTS. CONVERGENCE IS JUDGED UNLIKELY.


  INCREMENT     1 STARTS. ATTEMPT NUMBER  2, TIME INCREMENT  2.500E-02

  NUMBER OF EQUATIONS =       698     NUMBER OF FLOATING PT. OPERATIONS =  3.84E+05

     CHECK POINT   START OF SOLVER    

     CHECK POINT  END OF SOLVER       

       ELAPSED USER TIME (SEC)      =  1.00000E-02
       ELAPSED SYSTEM TIME (SEC)    =   0.0000    
       ELAPSED TOTAL CPU TIME (SEC) =  1.00000E-02
       ELAPSED WALLCLOCK TIME (SEC) =          0

 ***WARNING: THE STRAIN INCREMENT HAS EXCEEDED FIFTY TIMES THE STRAIN TO CAUSE 
             FIRST YIELD AT 246 POINTS

               CONVERGENCE CHECKS FOR EQUILIBRIUM ITERATION     1

   MAX. PENETRATION ERROR -652.402E-03   AT NODE PLATE-1.15 OF CONTACT PAIR 
   (ASSEMBLY_S_SURF-1,ASSEMBLY_RIGID_PRESS-1_SURF-3)
   MAX. CONTACT FORCE ERROR -72.0675E+03  AT NODE PLATE-1.15 OF CONTACT PAIR 
   (ASSEMBLY_S_SURF-1,ASSEMBLY_RIGID_PRESS-1_SURF-3)
          PENETRATION ERROR TOO LARGE COMPARED TO DISPLACEMENT INCREMENT.

 AVERAGE FORCE                      1.749E+07   TIME AVG. FORCE       1.749E+07
 LARGEST RESIDUAL FORCE            -2.803E+08   AT NODE         15   DOF  1
   INSTANCE: PLATE-1                                                                         
 LARGEST INCREMENT OF DISP.         -8.90       AT NODE         63   DOF  1
   INSTANCE: PLATE-1                                                                         
 LARGEST CORRECTION TO DISP.        -8.90       AT NODE         63   DOF  1
   INSTANCE: PLATE-1                                                                         
          FORCE     EQUILIBRIUM NOT ACHIEVED WITHIN TOLERANCE.

 AVERAGE MOMENT                     6.669E+09   TIME AVG. MOMENT      6.669E+09
 ALL MOMENT    RESIDUALS ARE ZERO
 LARGEST INCREMENT OF ROTATION     -1.430E-32   AT NODE          1   DOF  6
   INSTANCE: RIGID_PRESS-1                                                                   
 LARGEST CORRECTION TO ROTATION    -1.430E-32   AT NODE          1   DOF  6
   INSTANCE: RIGID_PRESS-1                                                                   
          THE MOMENT    EQUILIBRIUM RESPONSE WAS LINEAR IN THIS INCREMENT

  NUMBER OF EQUATIONS =       698     NUMBER OF FLOATING PT. OPERATIONS =  3.84E+05

     CHECK POINT   START OF SOLVER    

     CHECK POINT  END OF SOLVER       

       ELAPSED USER TIME (SEC)      =   0.0000    
       ELAPSED SYSTEM TIME (SEC)    =   0.0000    
       ELAPSED TOTAL CPU TIME (SEC) =   0.0000    
       ELAPSED WALLCLOCK TIME (SEC) =          0
 

 ***WARNING: THE SYSTEM MATRIX HAS 2 NEGATIVE EIGENVALUES.

     NEGATIVE EIGENVALUES MEAN THAT THE SYSTEM MATRIX IS NOT 
     POSITIVE DEFINITE:
     FOR EXAMPLE, A BIFURCATION (BUCKLING) LOAD MAY HAVE BEEN EXCEEDED.

 ***WARNING: THE STRAIN INCREMENT HAS EXCEEDED FIFTY TIMES THE STRAIN TO CAUSE 
             FIRST YIELD AT 252 POINTS

 ***WARNING: THE STRAIN INCREMENT IS SO LARGE THAT THE PROGRAM WILL NOT ATTEMPT 
             THE PLASTICITY CALCULATION AT 2 POINTS
 

 ***NOTE: MATERIAL CALCULATIONS FAILED TO CONVERGE OR WERE NOT ATTEMPTED AT ONE 
          OR MORE POINTS. CONVERGENCE IS JUDGED UNLIKELY.


  INCREMENT     1 STARTS. ATTEMPT NUMBER  3, TIME INCREMENT  6.250E-03

  NUMBER OF EQUATIONS =       698     NUMBER OF FLOATING PT. OPERATIONS =  3.84E+05

     CHECK POINT   START OF SOLVER    

     CHECK POINT  END OF SOLVER       

       ELAPSED USER TIME (SEC)      =   0.0000    
       ELAPSED SYSTEM TIME (SEC)    =   0.0000    
       ELAPSED TOTAL CPU TIME (SEC) =   0.0000    
       ELAPSED WALLCLOCK TIME (SEC) =          0

 ***WARNING: THE STRAIN INCREMENT HAS EXCEEDED FIFTY TIMES THE STRAIN TO CAUSE 
             FIRST YIELD AT 168 POINTS

               CONVERGENCE CHECKS FOR EQUILIBRIUM ITERATION     1


 AVERAGE FORCE                      4.310E+06   TIME AVG. FORCE       4.310E+06
 LARGEST RESIDUAL FORCE            -5.136E+07   AT NODE         15   DOF  2
   INSTANCE: PLATE-1                                                                         
 LARGEST INCREMENT OF DISP.         -2.22       AT NODE         63   DOF  1
   INSTANCE: PLATE-1                                                                         
 LARGEST CORRECTION TO DISP.        -2.22       AT NODE         63   DOF  1
   INSTANCE: PLATE-1                                                                         
          FORCE     EQUILIBRIUM NOT ACHIEVED WITHIN TOLERANCE.

 AVERAGE MOMENT                     1.658E+09   TIME AVG. MOMENT      1.658E+09
 ALL MOMENT    RESIDUALS ARE ZERO
 LARGEST INCREMENT OF ROTATION     -3.575E-33   AT NODE          1   DOF  6
   INSTANCE: RIGID_PRESS-1                                                                   
 LARGEST CORRECTION TO ROTATION    -3.575E-33   AT NODE          1   DOF  6
   INSTANCE: RIGID_PRESS-1                                                                   
          THE MOMENT    EQUILIBRIUM RESPONSE WAS LINEAR IN THIS INCREMENT

  NUMBER OF EQUATIONS =       698     NUMBER OF FLOATING PT. OPERATIONS =  3.84E+05

     CHECK POINT   START OF SOLVER    

     CHECK POINT  END OF SOLVER       

       ELAPSED USER TIME (SEC)      =  1.00000E-02
       ELAPSED SYSTEM TIME (SEC)    =   0.0000    
       ELAPSED TOTAL CPU TIME (SEC) =  1.00000E-02
       ELAPSED WALLCLOCK TIME (SEC) =          0

 ***WARNING: THE STRAIN INCREMENT HAS EXCEEDED FIFTY TIMES THE STRAIN TO CAUSE 
             FIRST YIELD AT 38 POINTS

               CONVERGENCE CHECKS FOR EQUILIBRIUM ITERATION     2


 AVERAGE FORCE                      1.302E+06   TIME AVG. FORCE       1.302E+06
 LARGEST RESIDUAL FORCE            -5.100E+06   AT NODE         17   DOF  2
   INSTANCE: PLATE-1                                                                         
 LARGEST INCREMENT OF DISP.         -4.32       AT NODE         16   DOF  1
   INSTANCE: PLATE-1                                                                         
 LARGEST CORRECTION TO DISP.        -2.57       AT NODE         16   DOF  1
   INSTANCE: PLATE-1                                                                         
          FORCE     EQUILIBRIUM NOT ACHIEVED WITHIN TOLERANCE.

 AVERAGE MOMENT                     3.512E+08   TIME AVG. MOMENT      3.512E+08
 ALL MOMENT    RESIDUALS ARE ZERO
 LARGEST INCREMENT OF ROTATION     -1.708E-34   AT NODE          1   DOF  6
   INSTANCE: RIGID_PRESS-1                                                                   
 LARGEST CORRECTION TO ROTATION     3.404E-33   AT NODE          1   DOF  6
   INSTANCE: RIGID_PRESS-1                                                                   
          THE MOMENT    EQUILIBRIUM EQUATIONS HAVE CONVERGED

  NUMBER OF EQUATIONS =       698     NUMBER OF FLOATING PT. OPERATIONS =  3.84E+05

     CHECK POINT   START OF SOLVER    

     CHECK POINT  END OF SOLVER       

       ELAPSED USER TIME (SEC)      =  1.00000E-02
       ELAPSED SYSTEM TIME (SEC)    =   0.0000    
       ELAPSED TOTAL CPU TIME (SEC) =  1.00000E-02
       ELAPSED WALLCLOCK TIME (SEC) =          0

 ***WARNING: THE STRAIN INCREMENT HAS EXCEEDED FIFTY TIMES THE STRAIN TO CAUSE 
             FIRST YIELD AT 44 POINTS

               CONVERGENCE CHECKS FOR EQUILIBRIUM ITERATION     3


 AVERAGE FORCE                      1.233E+06   TIME AVG. FORCE       1.233E+06
 LARGEST RESIDUAL FORCE             4.899E+05   AT NODE         16   DOF  2
   INSTANCE: PLATE-1                                                                         
 LARGEST INCREMENT OF DISP.         -4.42       AT NODE         63   DOF  1
   INSTANCE: PLATE-1                                                                         
 LARGEST CORRECTION TO DISP.       -0.105       AT NODE         62   DOF  1
   INSTANCE: PLATE-1                                                                         
          FORCE     EQUILIBRIUM NOT ACHIEVED WITHIN TOLERANCE.

 AVERAGE MOMENT                     3.297E+08   TIME AVG. MOMENT      3.297E+08
 ALL MOMENT    RESIDUALS ARE ZERO
 LARGEST INCREMENT OF ROTATION     -4.519E-35   AT NODE          1   DOF  6
   INSTANCE: RIGID_PRESS-1                                                                   
 LARGEST CORRECTION TO ROTATION     1.256E-34   AT NODE          1   DOF  6
   INSTANCE: RIGID_PRESS-1                                                                   
          THE MOMENT    EQUILIBRIUM EQUATIONS HAVE CONVERGED

  NUMBER OF EQUATIONS =       698     NUMBER OF FLOATING PT. OPERATIONS =  3.84E+05

     CHECK POINT   START OF SOLVER    

     CHECK POINT  END OF SOLVER       

       ELAPSED USER TIME (SEC)      =   0.0000    
       ELAPSED SYSTEM TIME (SEC)    =   0.0000    
       ELAPSED TOTAL CPU TIME (SEC) =   0.0000    
       ELAPSED WALLCLOCK TIME (SEC) =          0

 ***WARNING: THE STRAIN INCREMENT HAS EXCEEDED FIFTY TIMES THE STRAIN TO CAUSE 
             FIRST YIELD AT 44 POINTS

               CONVERGENCE CHECKS FOR EQUILIBRIUM ITERATION     4


 AVERAGE FORCE                      1.234E+06   TIME AVG. FORCE       1.234E+06
 LARGEST RESIDUAL FORCE             1.406E+04   AT NODE        121   DOF  2
   INSTANCE: PLATE-1                                                                         
 LARGEST INCREMENT OF DISP.         -4.42       AT NODE         63   DOF  1
   INSTANCE: PLATE-1                                                                         
 LARGEST CORRECTION TO DISP.        8.684E-03   AT NODE         16   DOF  2
   INSTANCE: PLATE-1                                                                         
          FORCE     EQUILIBRIUM NOT ACHIEVED WITHIN TOLERANCE.

 AVERAGE MOMENT                     3.298E+08   TIME AVG. MOMENT      3.298E+08
 ALL MOMENT    RESIDUALS ARE ZERO
 LARGEST INCREMENT OF ROTATION     -3.811E-35   AT NODE          1   DOF  6
   INSTANCE: RIGID_PRESS-1                                                                   
 LARGEST CORRECTION TO ROTATION     7.081E-36   AT NODE          1   DOF  6
   INSTANCE: RIGID_PRESS-1                                                                   
          THE MOMENT    EQUILIBRIUM EQUATIONS HAVE CONVERGED

  NUMBER OF EQUATIONS =       698     NUMBER OF FLOATING PT. OPERATIONS =  3.84E+05

     CHECK POINT   START OF SOLVER    

     CHECK POINT  END OF SOLVER       

       ELAPSED USER TIME (SEC)      =  1.00000E-02
       ELAPSED SYSTEM TIME (SEC)    =  1.00000E-02
       ELAPSED TOTAL CPU TIME (SEC) =  2.00000E-02
       ELAPSED WALLCLOCK TIME (SEC) =          0

 ***WARNING: THE STRAIN INCREMENT HAS EXCEEDED FIFTY TIMES THE STRAIN TO CAUSE 
             FIRST YIELD AT 44 POINTS

               CONVERGENCE CHECKS FOR EQUILIBRIUM ITERATION     5


 AVERAGE FORCE                      1.234E+06   TIME AVG. FORCE       1.234E+06
 LARGEST RESIDUAL FORCE              41.0       AT NODE        145   DOF  2
   INSTANCE: PLATE-1                                                                         
 LARGEST INCREMENT OF DISP.         -4.42       AT NODE         63   DOF  1
   INSTANCE: PLATE-1                                                                         
 LARGEST CORRECTION TO DISP.        2.549E-04   AT NODE        121   DOF  2
   INSTANCE: PLATE-1                                                                         
          THE FORCE     EQUILIBRIUM EQUATIONS HAVE CONVERGED

 AVERAGE MOMENT                     3.298E+08   TIME AVG. MOMENT      3.298E+08
 ALL MOMENT    RESIDUALS ARE ZERO
 LARGEST INCREMENT OF ROTATION     -4.001E-35   AT NODE          1   DOF  6
   INSTANCE: RIGID_PRESS-1                                                                   
 LARGEST CORRECTION TO ROTATION    -1.904E-36   AT NODE          1   DOF  6
   INSTANCE: RIGID_PRESS-1                                                                   
          THE MOMENT    EQUILIBRIUM EQUATIONS HAVE CONVERGED

 ITERATION SUMMARY FOR THE INCREMENT:   5 TOTAL ITERATIONS, OF WHICH
   0 ARE SEVERE DISCONTINUITY ITERATIONS AND  5 ARE EQUILIBRIUM ITERATIONS.

 TIME INCREMENT COMPLETED  6.250E-03,  FRACTION OF STEP COMPLETED  6.250E-02
 STEP TIME COMPLETED       6.250E-03,  TOTAL TIME COMPLETED        6.250E-03


  INCREMENT     2 STARTS. ATTEMPT NUMBER  1, TIME INCREMENT  6.250E-03

  NUMBER OF EQUATIONS =       698     NUMBER OF FLOATING PT. OPERATIONS =  3.84E+05

     CHECK POINT   START OF SOLVER    

     CHECK POINT  END OF SOLVER       

       ELAPSED USER TIME (SEC)      =   0.0000    
       ELAPSED SYSTEM TIME (SEC)    =   0.0000    
       ELAPSED TOTAL CPU TIME (SEC) =   0.0000    
       ELAPSED WALLCLOCK TIME (SEC) =          0
 

 ***WARNING: THE SYSTEM MATRIX HAS 3 NEGATIVE EIGENVALUES.
             EXPLANATIONS ARE SUGGESTED AFTER THE FIRST OCCURRENCE OF THIS MESSAGE.

                    2 SEVERE DISCONTINUITIES OCCURRED DURING THIS ITERATION.
                    2 POINTS CHANGED FROM CLOSED TO OPEN

               CONVERGENCE CHECKS FOR SEVERE DISCONTINUITY ITERATION     1

   MAX. CONTACT FORCE ERROR -1.29922E+06 AT NODE PLATE-1.15 OF CONTACT PAIR 
   (ASSEMBLY_S_SURF-1,ASSEMBLY_RIGID_PRESS-1_SURF-3)
          THE CONTACT CONSTRAINT ERRORS ARE WITHIN THE TOLERANCES.

 AVERAGE FORCE                      5.639E+06   TIME AVG. FORCE       3.436E+06
 LARGEST RESIDUAL FORCE             4.066E+07   AT NODE         15   DOF  2
   INSTANCE: PLATE-1                                                                         
 LARGEST INCREMENT OF DISP.          5.06       AT NODE         73   DOF  1
   INSTANCE: PLATE-1                                                                         
 LARGEST CORRECTION TO DISP.         3.73       AT NODE         15   DOF  1
   INSTANCE: PLATE-1                                                                         
          FORCE     EQUILIBRIUM NOT ACHIEVED WITHIN TOLERANCE.

 AVERAGE MOMENT                     3.472E+09   TIME AVG. MOMENT      1.901E+09
 ALL MOMENT    RESIDUALS ARE ZERO
 LARGEST INCREMENT OF ROTATION     -2.180E-33   AT NODE          1   DOF  6
   INSTANCE: RIGID_PRESS-1                                                                   
 LARGEST CORRECTION TO ROTATION    -2.140E-33   AT NODE          1   DOF  6
   INSTANCE: RIGID_PRESS-1                                                                   
          THE MOMENT    EQUILIBRIUM EQUATIONS HAVE CONVERGED

  NUMBER OF EQUATIONS =       696     NUMBER OF FLOATING PT. OPERATIONS =  3.82E+05

     CHECK POINT   START OF SOLVER    

     CHECK POINT  END OF SOLVER       

       ELAPSED USER TIME (SEC)      =   0.0000    
       ELAPSED SYSTEM TIME (SEC)    =  1.00000E-02
       ELAPSED TOTAL CPU TIME (SEC) =  1.00000E-02
       ELAPSED WALLCLOCK TIME (SEC) =          0

 ***WARNING: THE STRAIN INCREMENT HAS EXCEEDED FIFTY TIMES THE STRAIN TO CAUSE 
             FIRST YIELD AT 10 POINTS

               CONVERGENCE CHECKS FOR EQUILIBRIUM ITERATION     1


 AVERAGE FORCE                      4.724E+06   TIME AVG. FORCE       2.979E+06
 LARGEST RESIDUAL FORCE            -1.558E+08   AT NODE        142   DOF  2
   INSTANCE: PLATE-1                                                                         
 LARGEST INCREMENT OF DISP.          9.20       AT NODE        122   DOF  1
   INSTANCE: PLATE-1                                                                         
 LARGEST CORRECTION TO DISP.         10.5       AT NODE         15   DOF  2
   INSTANCE: PLATE-1                                                                         
          FORCE     EQUILIBRIUM NOT ACHIEVED WITHIN TOLERANCE.

 AVERAGE MOMENT                     2.313E+09   TIME AVG. MOMENT      1.321E+09
 ALL MOMENT    RESIDUALS ARE ZERO
 LARGEST INCREMENT OF ROTATION      5.358E-33   AT NODE          1   DOF  6
   INSTANCE: RIGID_PRESS-1                                                                   
 LARGEST CORRECTION TO ROTATION     7.538E-33   AT NODE          1   DOF  6
   INSTANCE: RIGID_PRESS-1                                                                   
          THE MOMENT    EQUILIBRIUM RESPONSE WAS LINEAR IN THIS INCREMENT

  NUMBER OF EQUATIONS =       696     NUMBER OF FLOATING PT. OPERATIONS =  3.82E+05

     CHECK POINT   START OF SOLVER    

     CHECK POINT  END OF SOLVER       

       ELAPSED USER TIME (SEC)      =   0.0000    
       ELAPSED SYSTEM TIME (SEC)    =   0.0000    
       ELAPSED TOTAL CPU TIME (SEC) =   0.0000    
       ELAPSED WALLCLOCK TIME (SEC) =          0
 

 ***WARNING: THE SYSTEM MATRIX HAS 3 NEGATIVE EIGENVALUES.
             EXPLANATIONS ARE SUGGESTED AFTER THE FIRST OCCURRENCE OF THIS MESSAGE.

 ***WARNING: THE STRAIN INCREMENT HAS EXCEEDED FIFTY TIMES THE STRAIN TO CAUSE 
             FIRST YIELD AT 66 POINTS

                    4 SEVERE DISCONTINUITIES OCCURRED DURING THIS ITERATION.
                    2 POINTS CHANGED FROM OPEN TO CLOSED
                    2 POINTS CHANGED FROM CLOSED TO OPEN

               CONVERGENCE CHECKS FOR SEVERE DISCONTINUITY ITERATION     2

   MAX. PENETRATION ERROR 4.16815     AT NODE PLATE-1.15 OF CONTACT PAIR 
   (ASSEMBLY_S_SURF-1,ASSEMBLY_RIGID_PRESS-1_SURF-3)
   MAX. CONTACT FORCE ERROR -31.6064E+06  AT NODE PLATE-1.14 OF CONTACT PAIR 
   (ASSEMBLY_S_SURF-1,ASSEMBLY_RIGID_PRESS-1_SURF-3)
          PENETRATION ERROR TOO LARGE COMPARED TO DISPLACEMENT INCREMENT.

 AVERAGE FORCE                      1.500E+07   TIME AVG. FORCE       8.118E+06
 LARGEST RESIDUAL FORCE             7.788E+08   AT NODE        142   DOF  2
   INSTANCE: PLATE-1                                                                         
 LARGEST INCREMENT OF DISP.          16.9       AT NODE         15   DOF  1
   INSTANCE: PLATE-1                                                                         
 LARGEST CORRECTION TO DISP.         26.1       AT NODE         15   DOF  1
   INSTANCE: PLATE-1                                                                         
          FORCE     EQUILIBRIUM NOT ACHIEVED WITHIN TOLERANCE.

 AVERAGE MOMENT                     1.078E+09   TIME AVG. MOMENT      7.041E+08
 ALL MOMENT    RESIDUALS ARE ZERO
 LARGEST INCREMENT OF ROTATION      1.046E-32   AT NODE          1   DOF  6
   INSTANCE: RIGID_PRESS-1                                                                   
 LARGEST CORRECTION TO ROTATION     5.098E-33   AT NODE          1   DOF  6
   INSTANCE: RIGID_PRESS-1                                                                   
          THE MOMENT    EQUILIBRIUM EQUATIONS HAVE CONVERGED

  NUMBER OF EQUATIONS =       696     NUMBER OF FLOATING PT. OPERATIONS =  3.82E+05

     CHECK POINT   START OF SOLVER    

     CHECK POINT  END OF SOLVER       

       ELAPSED USER TIME (SEC)      =  1.00000E-02
       ELAPSED SYSTEM TIME (SEC)    =   0.0000    
       ELAPSED TOTAL CPU TIME (SEC) =  1.00000E-02
       ELAPSED WALLCLOCK TIME (SEC) =          0
 

 ***WARNING: THE SYSTEM MATRIX HAS 10 NEGATIVE EIGENVALUES.
             EXPLANATIONS ARE SUGGESTED AFTER THE FIRST OCCURRENCE OF THIS MESSAGE.

 ***WARNING: THE STRAIN INCREMENT HAS EXCEEDED FIFTY TIMES THE STRAIN TO CAUSE 
             FIRST YIELD AT 58 POINTS

                    6 SEVERE DISCONTINUITIES OCCURRED DURING THIS ITERATION.
                    6 POINTS CHANGED FROM CLOSED TO OPEN

               CONVERGENCE CHECKS FOR SEVERE DISCONTINUITY ITERATION     3

   MAX. CONTACT FORCE ERROR -100.331E+06   AT NODE PLATE-1.15 OF CONTACT PAIR 
   (ASSEMBLY_S_SURF-1,ASSEMBLY_RIGID_PRESS-1_SURF-3)
          THE ESTIMATED CONTACT FORCE ERROR IS OUTSIDE OF CONVERGENCE TOLERANCES.

 AVERAGE FORCE                      9.490E+06   TIME AVG. FORCE       5.362E+06
 LARGEST RESIDUAL FORCE            -2.674E+08   AT NODE        137   DOF  2
   INSTANCE: PLATE-1                                                                         
 LARGEST INCREMENT OF DISP.          13.8       AT NODE         15   DOF  1
   INSTANCE: PLATE-1                                                                         
 LARGEST CORRECTION TO DISP.         8.05       AT NODE        255   DOF  1
   INSTANCE: PLATE-1                                                                         
          FORCE     EQUILIBRIUM NOT ACHIEVED WITHIN TOLERANCE.

 AVERAGE MOMENT                     8.436E+09   TIME AVG. MOMENT      4.383E+09
 ALL MOMENT    RESIDUALS ARE ZERO
 LARGEST INCREMENT OF ROTATION      1.599E-31   AT NODE          1   DOF  6
   INSTANCE: RIGID_PRESS-1                                                                   
 LARGEST CORRECTION TO ROTATION     1.495E-31   AT NODE          1   DOF  6
   INSTANCE: RIGID_PRESS-1                                                                   
          THE MOMENT    EQUILIBRIUM EQUATIONS HAVE CONVERGED

  NUMBER OF EQUATIONS =       690     NUMBER OF FLOATING PT. OPERATIONS =  3.73E+05

     CHECK POINT   START OF SOLVER    

     CHECK POINT  END OF SOLVER       

       ELAPSED USER TIME (SEC)      =  1.00000E-02
       ELAPSED SYSTEM TIME (SEC)    =   0.0000    
       ELAPSED TOTAL CPU TIME (SEC) =  1.00000E-02
       ELAPSED WALLCLOCK TIME (SEC) =          0
 

 ***WARNING: THE SYSTEM MATRIX HAS 8 NEGATIVE EIGENVALUES.
             EXPLANATIONS ARE SUGGESTED AFTER THE FIRST OCCURRENCE OF THIS MESSAGE.

 ***WARNING: THE STRAIN INCREMENT HAS EXCEEDED FIFTY TIMES THE STRAIN TO CAUSE 
             FIRST YIELD AT 80 POINTS

                    4 SEVERE DISCONTINUITIES OCCURRED DURING THIS ITERATION.
                    4 POINTS CHANGED FROM OPEN TO CLOSED

               CONVERGENCE CHECKS FOR SEVERE DISCONTINUITY ITERATION     4

   MAX. PENETRATION ERROR 7.86198     AT NODE PLATE-1.126 OF CONTACT PAIR 
   (ASSEMBLY_S_SURF-1,ASSEMBLY_RIGID_PRESS-1_SURF-3)
   MAX. CONTACT FORCE ERROR 867.025E+03   AT NODE PLATE-1.126 OF CONTACT PAIR 
   (ASSEMBLY_S_SURF-1,ASSEMBLY_RIGID_PRESS-1_SURF-3)
          PENETRATION ERROR TOO LARGE COMPARED TO DISPLACEMENT INCREMENT.

 AVERAGE FORCE                      9.896E+06   TIME AVG. FORCE       5.565E+06
 LARGEST RESIDUAL FORCE            -2.658E+08   AT NODE         15   DOF  2
   INSTANCE: PLATE-1                                                                         
 LARGEST INCREMENT OF DISP.         -14.2       AT NODE        122   DOF  1
   INSTANCE: PLATE-1                                                                         
 LARGEST CORRECTION TO DISP.        -12.0       AT NODE        251   DOF  1
   INSTANCE: PLATE-1                                                                         
          FORCE     EQUILIBRIUM NOT ACHIEVED WITHIN TOLERANCE.

 AVERAGE MOMENT                     1.303E+06   TIME AVG. MOMENT      1.655E+08
 ALL MOMENT    RESIDUALS ARE ZERO
 LARGEST INCREMENT OF ROTATION     -3.843E-30   AT NODE          1   DOF  6
   INSTANCE: RIGID_PRESS-1                                                                   
 LARGEST CORRECTION TO ROTATION    -4.002E-30   AT NODE          1   DOF  6
   INSTANCE: RIGID_PRESS-1                                                                   
          THE MOMENT    EQUILIBRIUM EQUATIONS HAVE CONVERGED

  NUMBER OF EQUATIONS =       694     NUMBER OF FLOATING PT. OPERATIONS =  3.80E+05

     CHECK POINT   START OF SOLVER    

     CHECK POINT  END OF SOLVER       

       ELAPSED USER TIME (SEC)      =   0.0000    
       ELAPSED SYSTEM TIME (SEC)    =   0.0000    
       ELAPSED TOTAL CPU TIME (SEC) =   0.0000    
       ELAPSED WALLCLOCK TIME (SEC) =          0
 

 ***WARNING: THE SYSTEM MATRIX HAS 16 NEGATIVE EIGENVALUES.
             EXPLANATIONS ARE SUGGESTED AFTER THE FIRST OCCURRENCE OF THIS MESSAGE.
   ELEMENT PLATE-1.5 IS DISTORTING EXCESSIVELY.
   ELEMENT PLATE-1.5 IS DISTORTING EXCESSIVELY.
   ELEMENT PLATE-1.5 IS DISTORTING EXCESSIVELY.
   ELEMENT PLATE-1.5 IS DISTORTING EXCESSIVELY.
   ELEMENT PLATE-1.7 IS DISTORTING EXCESSIVELY.
   ELEMENT PLATE-1.7 IS DISTORTING EXCESSIVELY.
   ELEMENT PLATE-1.7 IS DISTORTING EXCESSIVELY.
   ELEMENT PLATE-1.7 IS DISTORTING EXCESSIVELY.
   ELEMENT PLATE-1.8 IS DISTORTING EXCESSIVELY.
   ELEMENT PLATE-1.8 IS DISTORTING EXCESSIVELY.
   ELEMENT PLATE-1.8 IS DISTORTING EXCESSIVELY.
   ELEMENT PLATE-1.8 IS DISTORTING EXCESSIVELY.
   ELEMENT PLATE-1.9 IS DISTORTING EXCESSIVELY.
   ELEMENT PLATE-1.9 IS DISTORTING EXCESSIVELY.
   ELEMENT PLATE-1.9 IS DISTORTING EXCESSIVELY.
   ELEMENT PLATE-1.9 IS DISTORTING EXCESSIVELY.
   ELEMENT PLATE-1.9 IS DISTORTING EXCESSIVELY.
   ELEMENT PLATE-1.9 IS DISTORTING EXCESSIVELY.
   ELEMENT PLATE-1.10 IS DISTORTING EXCESSIVELY.
   ELEMENT PLATE-1.10 IS DISTORTING EXCESSIVELY.
   ELEMENT PLATE-1.10 IS DISTORTING EXCESSIVELY.
   ELEMENT PLATE-1.10 IS DISTORTING EXCESSIVELY.
   ELEMENT PLATE-1.11 IS DISTORTING EXCESSIVELY.
   ELEMENT PLATE-1.11 IS DISTORTING EXCESSIVELY.
   ELEMENT PLATE-1.13 IS DISTORTING EXCESSIVELY.
   ELEMENT PLATE-1.13 IS DISTORTING EXCESSIVELY.
   ELEMENT PLATE-1.13 IS DISTORTING EXCESSIVELY.
   ELEMENT PLATE-1.13 IS DISTORTING EXCESSIVELY.
   ELEMENT PLATE-1.14 IS DISTORTING EXCESSIVELY.
   ELEMENT PLATE-1.14 IS DISTORTING EXCESSIVELY.
   ELEMENT PLATE-1.14 IS DISTORTING EXCESSIVELY.
   ELEMENT PLATE-1.14 IS DISTORTING EXCESSIVELY.
   ELEMENT PLATE-1.14 IS DISTORTING EXCESSIVELY.
   ELEMENT PLATE-1.14 IS DISTORTING EXCESSIVELY.
   ELEMENT PLATE-1.15 IS DISTORTING EXCESSIVELY.
   ELEMENT PLATE-1.15 IS DISTORTING EXCESSIVELY.
   ELEMENT PLATE-1.15 IS DISTORTING EXCESSIVELY.
   ELEMENT PLATE-1.15 IS DISTORTING EXCESSIVELY.
   ELEMENT PLATE-1.15 IS DISTORTING EXCESSIVELY.
   ELEMENT PLATE-1.15 IS DISTORTING EXCESSIVELY.
   ELEMENT PLATE-1.15 IS DISTORTING EXCESSIVELY.
   ELEMENT PLATE-1.15 IS DISTORTING EXCESSIVELY.
   ELEMENT PLATE-1.15 IS DISTORTING EXCESSIVELY.
   ELEMENT PLATE-1.15 IS DISTORTING EXCESSIVELY.
   ELEMENT PLATE-1.19 IS DISTORTING EXCESSIVELY.
   ELEMENT PLATE-1.19 IS DISTORTING EXCESSIVELY.
   ELEMENT PLATE-1.19 IS DISTORTING EXCESSIVELY.
   ELEMENT PLATE-1.20 IS DISTORTING EXCESSIVELY.
   ELEMENT PLATE-1.20 IS DISTORTING EXCESSIVELY.
   ELEMENT PLATE-1.20 IS DISTORTING EXCESSIVELY.
   ELEMENT PLATE-1.20 IS DISTORTING EXCESSIVELY.
   ELEMENT PLATE-1.20 IS DISTORTING EXCESSIVELY.
   ELEMENT PLATE-1.21 IS DISTORTING EXCESSIVELY.
   ELEMENT PLATE-1.21 IS DISTORTING EXCESSIVELY.
   ELEMENT PLATE-1.21 IS DISTORTING EXCESSIVELY.
   ELEMENT PLATE-1.21 IS DISTORTING EXCESSIVELY.
   ELEMENT PLATE-1.22 IS DISTORTING EXCESSIVELY.
   ELEMENT PLATE-1.22 IS DISTORTING EXCESSIVELY.
   ELEMENT PLATE-1.22 IS DISTORTING EXCESSIVELY.
   ELEMENT PLATE-1.22 IS DISTORTING EXCESSIVELY.
   ELEMENT PLATE-1.22 IS DISTORTING EXCESSIVELY.
   ELEMENT PLATE-1.22 IS DISTORTING EXCESSIVELY.
   ELEMENT PLATE-1.22 IS DISTORTING EXCESSIVELY.
   ELEMENT PLATE-1.22 IS DISTORTING EXCESSIVELY.
   ELEMENT PLATE-1.22 IS DISTORTING EXCESSIVELY.
   ELEMENT PLATE-1.22 IS DISTORTING EXCESSIVELY.
   ELEMENT PLATE-1.22 IS DISTORTING EXCESSIVELY.
   ELEMENT PLATE-1.22 IS DISTORTING EXCESSIVELY.
   ELEMENT PLATE-1.23 IS DISTORTING EXCESSIVELY.
   ELEMENT PLATE-1.23 IS DISTORTING EXCESSIVELY.
   ELEMENT PLATE-1.23 IS DISTORTING EXCESSIVELY.
   ELEMENT PLATE-1.23 IS DISTORTING EXCESSIVELY.
   ELEMENT PLATE-1.24 IS DISTORTING EXCESSIVELY.
   ELEMENT PLATE-1.24 IS DISTORTING EXCESSIVELY.
   ELEMENT PLATE-1.24 IS DISTORTING EXCESSIVELY.
   ELEMENT PLATE-1.25 IS DISTORTING EXCESSIVELY.
   ELEMENT PLATE-1.25 IS DISTORTING EXCESSIVELY.
   ELEMENT PLATE-1.25 IS DISTORTING EXCESSIVELY.
   ELEMENT PLATE-1.26 IS DISTORTING EXCESSIVELY.
   ELEMENT PLATE-1.26 IS DISTORTING EXCESSIVELY.
   ELEMENT PLATE-1.28 IS DISTORTING EXCESSIVELY.
   ELEMENT PLATE-1.28 IS DISTORTING EXCESSIVELY.
   ELEMENT PLATE-1.28 IS DISTORTING EXCESSIVELY.
   ELEMENT PLATE-1.28 IS DISTORTING EXCESSIVELY.
   ELEMENT PLATE-1.28 IS DISTORTING EXCESSIVELY.
   ELEMENT PLATE-1.28 IS DISTORTING EXCESSIVELY.
   ELEMENT PLATE-1.28 IS DISTORTING EXCESSIVELY.
   ELEMENT PLATE-1.28 IS DISTORTING EXCESSIVELY.
   ELEMENT PLATE-1.29 IS DISTORTING EXCESSIVELY.
   ELEMENT PLATE-1.29 IS DISTORTING EXCESSIVELY.
   ELEMENT PLATE-1.29 IS DISTORTING EXCESSIVELY.
   ELEMENT PLATE-1.29 IS DISTORTING EXCESSIVELY.
   ELEMENT PLATE-1.30 IS DISTORTING EXCESSIVELY.
   ELEMENT PLATE-1.30 IS DISTORTING EXCESSIVELY.
   ELEMENT PLATE-1.30 IS DISTORTING EXCESSIVELY.
   ELEMENT PLATE-1.30 IS DISTORTING EXCESSIVELY.
   ELEMENT PLATE-1.31 IS DISTORTING EXCESSIVELY.
   ELEMENT PLATE-1.31 IS DISTORTING EXCESSIVELY.
   ELEMENT PLATE-1.31 IS DISTORTING EXCESSIVELY.
   ELEMENT PLATE-1.31 IS DISTORTING EXCESSIVELY.
   ELEMENT PLATE-1.31 IS DISTORTING EXCESSIVELY.
   ELEMENT PLATE-1.31 IS DISTORTING EXCESSIVELY.
   ELEMENT PLATE-1.31 IS DISTORTING EXCESSIVELY.
   ELEMENT PLATE-1.31 IS DISTORTING EXCESSIVELY.
   ELEMENT PLATE-1.34 IS DISTORTING EXCESSIVELY.
   ELEMENT PLATE-1.34 IS DISTORTING EXCESSIVELY.
   ELEMENT PLATE-1.34 IS DISTORTING EXCESSIVELY.
   ELEMENT PLATE-1.34 IS DISTORTING EXCESSIVELY.
   ELEMENT PLATE-1.34 IS DISTORTING EXCESSIVELY.
   ELEMENT PLATE-1.34 IS DISTORTING EXCESSIVELY.
   ELEMENT PLATE-1.34 IS DISTORTING EXCESSIVELY.
   ELEMENT PLATE-1.34 IS DISTORTING EXCESSIVELY.
   ELEMENT PLATE-1.34 IS DISTORTING EXCESSIVELY.
   ELEMENT PLATE-1.39 IS DISTORTING EXCESSIVELY.
   ELEMENT PLATE-1.39 IS DISTORTING EXCESSIVELY.
   ELEMENT PLATE-1.40 IS DISTORTING EXCESSIVELY.
   ELEMENT PLATE-1.40 IS DISTORTING EXCESSIVELY.
   ELEMENT PLATE-1.141 IS DISTORTING EXCESSIVELY.
   ELEMENT PLATE-1.141 IS DISTORTING EXCESSIVELY.
   ELEMENT PLATE-1.141 IS DISTORTING EXCESSIVELY.
   ELEMENT PLATE-1.141 IS DISTORTING EXCESSIVELY.
   ELEMENT PLATE-1.146 IS DISTORTING EXCESSIVELY.
   ELEMENT PLATE-1.146 IS DISTORTING EXCESSIVELY.
   ELEMENT PLATE-1.146 IS DISTORTING EXCESSIVELY.
   ELEMENT PLATE-1.146 IS DISTORTING EXCESSIVELY.
   ELEMENT PLATE-1.147 IS DISTORTING EXCESSIVELY.
   ELEMENT PLATE-1.147 IS DISTORTING EXCESSIVELY.
   ELEMENT PLATE-1.147 IS DISTORTING EXCESSIVELY.
   ELEMENT PLATE-1.147 IS DISTORTING EXCESSIVELY.
   ELEMENT PLATE-1.148 IS DISTORTING EXCESSIVELY.
   ELEMENT PLATE-1.148 IS DISTORTING EXCESSIVELY.
   ELEMENT PLATE-1.148 IS DISTORTING EXCESSIVELY.
   ELEMENT PLATE-1.148 IS DISTORTING EXCESSIVELY.
   ELEMENT PLATE-1.149 IS DISTORTING EXCESSIVELY.
   ELEMENT PLATE-1.149 IS DISTORTING EXCESSIVELY.
   ELEMENT PLATE-1.151 IS DISTORTING EXCESSIVELY.
   ELEMENT PLATE-1.151 IS DISTORTING EXCESSIVELY.
   ELEMENT PLATE-1.151 IS DISTORTING EXCESSIVELY.
   ELEMENT PLATE-1.151 IS DISTORTING EXCESSIVELY.
   ELEMENT PLATE-1.151 IS DISTORTING EXCESSIVELY.
   ELEMENT PLATE-1.151 IS DISTORTING EXCESSIVELY.
   ELEMENT PLATE-1.151 IS DISTORTING EXCESSIVELY.
   ELEMENT PLATE-1.151 IS DISTORTING EXCESSIVELY.
   ELEMENT PLATE-1.151 IS DISTORTING EXCESSIVELY.
   ELEMENT PLATE-1.151 IS DISTORTING EXCESSIVELY.
   ELEMENT PLATE-1.152 IS DISTORTING EXCESSIVELY.
   ELEMENT PLATE-1.152 IS DISTORTING EXCESSIVELY.
   ELEMENT PLATE-1.152 IS DISTORTING EXCESSIVELY.
   ELEMENT PLATE-1.152 IS DISTORTING EXCESSIVELY.
   ELEMENT PLATE-1.152 IS DISTORTING EXCESSIVELY.
   ELEMENT PLATE-1.152 IS DISTORTING EXCESSIVELY.
   ELEMENT PLATE-1.153 IS DISTORTING EXCESSIVELY.
   ELEMENT PLATE-1.153 IS DISTORTING EXCESSIVELY.
   ELEMENT PLATE-1.153 IS DISTORTING EXCESSIVELY.
   ELEMENT PLATE-1.153 IS DISTORTING EXCESSIVELY.
   ELEMENT PLATE-1.155 IS DISTORTING EXCESSIVELY.
   ELEMENT PLATE-1.155 IS DISTORTING EXCESSIVELY.
   ELEMENT PLATE-1.156 IS DISTORTING EXCESSIVELY.
   ELEMENT PLATE-1.156 IS DISTORTING EXCESSIVELY.
   ELEMENT PLATE-1.156 IS DISTORTING EXCESSIVELY.
   ELEMENT PLATE-1.156 IS DISTORTING EXCESSIVELY.
   ELEMENT PLATE-1.156 IS DISTORTING EXCESSIVELY.
   ELEMENT PLATE-1.157 IS DISTORTING EXCESSIVELY.
   ELEMENT PLATE-1.157 IS DISTORTING EXCESSIVELY.
   ELEMENT PLATE-1.157 IS DISTORTING EXCESSIVELY.
   ELEMENT PLATE-1.161 IS DISTORTING EXCESSIVELY.
   ELEMENT PLATE-1.161 IS DISTORTING EXCESSIVELY.
   ELEMENT PLATE-1.161 IS DISTORTING EXCESSIVELY.
   ELEMENT PLATE-1.162 IS DISTORTING EXCESSIVELY.
   ELEMENT PLATE-1.162 IS DISTORTING EXCESSIVELY.
   ELEMENT PLATE-1.162 IS DISTORTING EXCESSIVELY.
   ELEMENT PLATE-1.163 IS DISTORTING EXCESSIVELY.
   ELEMENT PLATE-1.163 IS DISTORTING EXCESSIVELY.
   ELEMENT PLATE-1.163 IS DISTORTING EXCESSIVELY.
   ELEMENT PLATE-1.163 IS DISTORTING EXCESSIVELY.
   ELEMENT PLATE-1.164 IS DISTORTING EXCESSIVELY.
   ELEMENT PLATE-1.164 IS DISTORTING EXCESSIVELY.
   ELEMENT PLATE-1.164 IS DISTORTING EXCESSIVELY.
   ELEMENT PLATE-1.164 IS DISTORTING EXCESSIVELY.
   ELEMENT PLATE-1.164 IS DISTORTING EXCESSIVELY.
   ELEMENT PLATE-1.164 IS DISTORTING EXCESSIVELY.
   ELEMENT PLATE-1.164 IS DISTORTING EXCESSIVELY.
   ELEMENT PLATE-1.164 IS DISTORTING EXCESSIVELY.
   ELEMENT PLATE-1.164 IS DISTORTING EXCESSIVELY.
   ELEMENT PLATE-1.164 IS DISTORTING EXCESSIVELY.
   ELEMENT PLATE-1.164 IS DISTORTING EXCESSIVELY.
   ELEMENT PLATE-1.164 IS DISTORTING EXCESSIVELY.
   ELEMENT PLATE-1.165 IS DISTORTING EXCESSIVELY.
   ELEMENT PLATE-1.165 IS DISTORTING EXCESSIVELY.
   ELEMENT PLATE-1.165 IS DISTORTING EXCESSIVELY.
   ELEMENT PLATE-1.165 IS DISTORTING EXCESSIVELY.
   ELEMENT PLATE-1.166 IS DISTORTING EXCESSIVELY.
   ELEMENT PLATE-1.166 IS DISTORTING EXCESSIVELY.
   ELEMENT PLATE-1.166 IS DISTORTING EXCESSIVELY.
   ELEMENT PLATE-1.166 IS DISTORTING EXCESSIVELY.
   ELEMENT PLATE-1.167 IS DISTORTING EXCESSIVELY.
   ELEMENT PLATE-1.167 IS DISTORTING EXCESSIVELY.
   ELEMENT PLATE-1.167 IS DISTORTING EXCESSIVELY.
   ELEMENT PLATE-1.167 IS DISTORTING EXCESSIVELY.
   ELEMENT PLATE-1.168 IS DISTORTING EXCESSIVELY.
   ELEMENT PLATE-1.168 IS DISTORTING EXCESSIVELY.
   ELEMENT PLATE-1.168 IS DISTORTING EXCESSIVELY.
   ELEMENT PLATE-1.168 IS DISTORTING EXCESSIVELY.
   ELEMENT PLATE-1.168 IS DISTORTING EXCESSIVELY.
   ELEMENT PLATE-1.168 IS DISTORTING EXCESSIVELY.
   ELEMENT PLATE-1.168 IS DISTORTING EXCESSIVELY.
   ELEMENT PLATE-1.168 IS DISTORTING EXCESSIVELY.
   ELEMENT PLATE-1.170 IS DISTORTING EXCESSIVELY.
   ELEMENT PLATE-1.170 IS DISTORTING EXCESSIVELY.
   ELEMENT PLATE-1.172 IS DISTORTING EXCESSIVELY.
   ELEMENT PLATE-1.172 IS DISTORTING EXCESSIVELY.
   ELEMENT PLATE-1.172 IS DISTORTING EXCESSIVELY.
   ELEMENT PLATE-1.172 IS DISTORTING EXCESSIVELY.
   ELEMENT PLATE-1.172 IS DISTORTING EXCESSIVELY.
   ELEMENT PLATE-1.172 IS DISTORTING EXCESSIVELY.
   ELEMENT PLATE-1.172 IS DISTORTING EXCESSIVELY.
   ELEMENT PLATE-1.172 IS DISTORTING EXCESSIVELY.
   ELEMENT PLATE-1.172 IS DISTORTING EXCESSIVELY.
   ELEMENT PLATE-1.175 IS DISTORTING EXCESSIVELY.
   ELEMENT PLATE-1.175 IS DISTORTING EXCESSIVELY.
   ELEMENT PLATE-1.175 IS DISTORTING EXCESSIVELY.
   ELEMENT PLATE-1.175 IS DISTORTING EXCESSIVELY.
   ELEMENT PLATE-1.175 IS DISTORTING EXCESSIVELY.
   ELEMENT PLATE-1.175 IS DISTORTING EXCESSIVELY.
   ELEMENT PLATE-1.175 IS DISTORTING EXCESSIVELY.
   ELEMENT PLATE-1.175 IS DISTORTING EXCESSIVELY.
   ELEMENT PLATE-1.176 IS DISTORTING EXCESSIVELY.
   ELEMENT PLATE-1.176 IS DISTORTING EXCESSIVELY.
   ELEMENT PLATE-1.177 IS DISTORTING EXCESSIVELY.
   ELEMENT PLATE-1.177 IS DISTORTING EXCESSIVELY.
   CONTACT PAIR (ASSEMBLY_S_SURF-1,ASSEMBLY_RIGID_PRESS-1_SURF-3) NODE 
   PLATE-1.14 IS OVERCLOSED BY 19.4273      WHICH IS TOO SEVERE.
   CONTACT PAIR (ASSEMBLY_S_SURF-1,ASSEMBLY_RIGID_PRESS-1_SURF-3) NODE 
   PLATE-1.123 IS OVERCLOSED BY 19.0434      WHICH IS TOO SEVERE.

 ***WARNING: THE STRAIN INCREMENT HAS EXCEEDED FIFTY TIMES THE STRAIN TO CAUSE 
             FIRST YIELD AT 16 POINTS

 ***WARNING: EXCESSIVE DISTORTION AT A TOTAL OF 230 INTEGRATION POINTS IN SOLID 
             (CONTINUUM) ELEMENTS
 

 ***NOTE: ELEMENTS ARE DISTORTING EXCESSIVELY. CONVERGENCE IS JUDGED UNLIKELY.
 

 ***NOTE: SEVERE CONTACT OVERCLOSURES EXIST. CONVERGENCE IS JUDGED UNLIKELY.


  INCREMENT     2 STARTS. ATTEMPT NUMBER  2, TIME INCREMENT  1.563E-03

  NUMBER OF EQUATIONS =       698     NUMBER OF FLOATING PT. OPERATIONS =  3.84E+05

     CHECK POINT   START OF SOLVER    

     CHECK POINT  END OF SOLVER       

       ELAPSED USER TIME (SEC)      =  1.00000E-02
       ELAPSED SYSTEM TIME (SEC)    =   0.0000    
       ELAPSED TOTAL CPU TIME (SEC) =  1.00000E-02
       ELAPSED WALLCLOCK TIME (SEC) =          0
 

 ***WARNING: THE SYSTEM MATRIX HAS 1 NEGATIVE EIGENVALUES.
             EXPLANATIONS ARE SUGGESTED AFTER THE FIRST OCCURRENCE OF THIS MESSAGE.

               CONVERGENCE CHECKS FOR EQUILIBRIUM ITERATION     1

   MAX. PENETRATION ERROR -78.6090E-03  AT NODE PLATE-1.122 OF CONTACT PAIR 
   (ASSEMBLY_S_SURF-1,ASSEMBLY_RIGID_PRESS-1_SURF-3)
   MAX. CONTACT FORCE ERROR -8.67158E+03 AT NODE PLATE-1.122 OF CONTACT PAIR 
   (ASSEMBLY_S_SURF-1,ASSEMBLY_RIGID_PRESS-1_SURF-3)
          PENETRATION ERROR TOO LARGE COMPARED TO DISPLACEMENT INCREMENT.

 AVERAGE FORCE                      2.210E+06   TIME AVG. FORCE       1.722E+06
 LARGEST RESIDUAL FORCE             1.685E+06   AT NODE        251   DOF  2
   INSTANCE: PLATE-1                                                                         
 LARGEST INCREMENT OF DISP.          1.57       AT NODE        122   DOF  1
   INSTANCE: PLATE-1                                                                         
 LARGEST CORRECTION TO DISP.        0.686       AT NODE        122   DOF  1
   INSTANCE: PLATE-1                                                                         
          FORCE     EQUILIBRIUM NOT ACHIEVED WITHIN TOLERANCE.

 AVERAGE MOMENT                     1.644E+09   TIME AVG. MOMENT      9.868E+08
 ALL MOMENT    RESIDUALS ARE ZERO
 LARGEST INCREMENT OF ROTATION     -1.294E-32   AT NODE          1   DOF  6
   INSTANCE: RIGID_PRESS-1                                                                   
 LARGEST CORRECTION TO ROTATION    -1.293E-32   AT NODE          1   DOF  6
   INSTANCE: RIGID_PRESS-1                                                                   
          THE MOMENT    EQUILIBRIUM RESPONSE WAS LINEAR IN THIS INCREMENT

  NUMBER OF EQUATIONS =       698     NUMBER OF FLOATING PT. OPERATIONS =  3.84E+05

     CHECK POINT   START OF SOLVER    

     CHECK POINT  END OF SOLVER       

       ELAPSED USER TIME (SEC)      =  1.00000E-02
       ELAPSED SYSTEM TIME (SEC)    =   0.0000    
       ELAPSED TOTAL CPU TIME (SEC) =  1.00000E-02
       ELAPSED WALLCLOCK TIME (SEC) =          0
 

 ***WARNING: THE SYSTEM MATRIX HAS 1 NEGATIVE EIGENVALUES.
             EXPLANATIONS ARE SUGGESTED AFTER THE FIRST OCCURRENCE OF THIS MESSAGE.

               CONVERGENCE CHECKS FOR EQUILIBRIUM ITERATION     2

   MAX. PENETRATION ERROR -5.31978E-03 AT NODE PLATE-1.15 OF CONTACT PAIR 
   (ASSEMBLY_S_SURF-1,ASSEMBLY_RIGID_PRESS-1_SURF-3)
   MAX. CONTACT FORCE ERROR -586.911       AT NODE PLATE-1.15 OF CONTACT PAIR 
   (ASSEMBLY_S_SURF-1,ASSEMBLY_RIGID_PRESS-1_SURF-3)
          THE CONTACT CONSTRAINTS HAVE CONVERGED.

 AVERAGE FORCE                      2.327E+06   TIME AVG. FORCE       1.781E+06
 LARGEST RESIDUAL FORCE            -4.202E+05   AT NODE         15   DOF  1
   INSTANCE: PLATE-1                                                                         
 LARGEST INCREMENT OF DISP.          1.43       AT NODE        255   DOF  1
   INSTANCE: PLATE-1                                                                         
 LARGEST CORRECTION TO DISP.        0.194       AT NODE         15   DOF  1
   INSTANCE: PLATE-1                                                                         
          FORCE     EQUILIBRIUM NOT ACHIEVED WITHIN TOLERANCE.

 AVERAGE MOMENT                     1.738E+09   TIME AVG. MOMENT      1.034E+09
 ALL MOMENT    RESIDUALS ARE ZERO
 LARGEST INCREMENT OF ROTATION     -3.254E-31   AT NODE          1   DOF  6
   INSTANCE: RIGID_PRESS-1                                                                   
 LARGEST CORRECTION TO ROTATION    -3.124E-31   AT NODE          1   DOF  6
   INSTANCE: RIGID_PRESS-1                                                                   
          THE MOMENT    EQUILIBRIUM EQUATIONS HAVE CONVERGED

  NUMBER OF EQUATIONS =       698     NUMBER OF FLOATING PT. OPERATIONS =  3.84E+05

     CHECK POINT   START OF SOLVER    

     CHECK POINT  END OF SOLVER       

       ELAPSED USER TIME (SEC)      =  1.00000E-02
       ELAPSED SYSTEM TIME (SEC)    =   0.0000    
       ELAPSED TOTAL CPU TIME (SEC) =  1.00000E-02
       ELAPSED WALLCLOCK TIME (SEC) =          0
 

 ***WARNING: THE SYSTEM MATRIX HAS 1 NEGATIVE EIGENVALUES.
             EXPLANATIONS ARE SUGGESTED AFTER THE FIRST OCCURRENCE OF THIS MESSAGE.

               CONVERGENCE CHECKS FOR EQUILIBRIUM ITERATION     3

   MAX. PENETRATION ERROR -20.4055E-06  AT NODE PLATE-1.15 OF CONTACT PAIR 
   (ASSEMBLY_S_SURF-1,ASSEMBLY_RIGID_PRESS-1_SURF-3)
   MAX. CONTACT FORCE ERROR -2.25145     AT NODE PLATE-1.15 OF CONTACT PAIR 
   (ASSEMBLY_S_SURF-1,ASSEMBLY_RIGID_PRESS-1_SURF-3)
          THE CONTACT CONSTRAINTS HAVE CONVERGED.

 AVERAGE FORCE                      2.328E+06   TIME AVG. FORCE       1.781E+06
 LARGEST RESIDUAL FORCE            -8.399E+03   AT NODE         15   DOF  2
   INSTANCE: PLATE-1                                                                         
 LARGEST INCREMENT OF DISP.          1.43       AT NODE        255   DOF  1
   INSTANCE: PLATE-1                                                                         
 LARGEST CORRECTION TO DISP.       -9.274E-03   AT NODE         15   DOF  1
   INSTANCE: PLATE-1                                                                         
          THE FORCE     EQUILIBRIUM EQUATIONS HAVE CONVERGED

 AVERAGE MOMENT                     1.733E+09   TIME AVG. MOMENT      1.031E+09
 ALL MOMENT    RESIDUALS ARE ZERO
 LARGEST INCREMENT OF ROTATION     -1.623E-31   AT NODE          1   DOF  6
   INSTANCE: RIGID_PRESS-1                                                                   
 LARGEST CORRECTION TO ROTATION     1.631E-31   AT NODE          1   DOF  6
   INSTANCE: RIGID_PRESS-1                                                                   
          THE MOMENT    EQUILIBRIUM EQUATIONS HAVE CONVERGED

 ITERATION SUMMARY FOR THE INCREMENT:   3 TOTAL ITERATIONS, OF WHICH
   0 ARE SEVERE DISCONTINUITY ITERATIONS AND  3 ARE EQUILIBRIUM ITERATIONS.

 TIME INCREMENT COMPLETED  1.563E-03,  FRACTION OF STEP COMPLETED  7.812E-02
 STEP TIME COMPLETED       7.812E-03,  TOTAL TIME COMPLETED        7.812E-03


  INCREMENT     3 STARTS. ATTEMPT NUMBER  1, TIME INCREMENT  1.563E-03

  NUMBER OF EQUATIONS =       698     NUMBER OF FLOATING PT. OPERATIONS =  3.84E+05

     CHECK POINT   START OF SOLVER    

     CHECK POINT  END OF SOLVER       

       ELAPSED USER TIME (SEC)      =  1.00000E-02
       ELAPSED SYSTEM TIME (SEC)    =   0.0000    
       ELAPSED TOTAL CPU TIME (SEC) =  1.00000E-02
       ELAPSED WALLCLOCK TIME (SEC) =          0

               CONVERGENCE CHECKS FOR EQUILIBRIUM ITERATION     1

   MAX. PENETRATION ERROR -47.2435E-03  AT NODE PLATE-1.15 OF CONTACT PAIR 
   (ASSEMBLY_S_SURF-1,ASSEMBLY_RIGID_PRESS-1_SURF-3)
   MAX. CONTACT FORCE ERROR -5.23127E+03 AT NODE PLATE-1.15 OF CONTACT PAIR 
   (ASSEMBLY_S_SURF-1,ASSEMBLY_RIGID_PRESS-1_SURF-3)
          PENETRATION ERROR TOO LARGE COMPARED TO DISPLACEMENT INCREMENT.

 AVERAGE FORCE                      1.665E+06   TIME AVG. FORCE       1.743E+06
 LARGEST RESIDUAL FORCE            -8.954E+06   AT NODE         15   DOF  2
   INSTANCE: PLATE-1                                                                         
 LARGEST INCREMENT OF DISP.         -1.48       AT NODE         15   DOF  1
   INSTANCE: PLATE-1                                                                         
 LARGEST CORRECTION TO DISP.        0.756       AT NODE         15   DOF  2
   INSTANCE: PLATE-1                                                                         
          FORCE     EQUILIBRIUM NOT ACHIEVED WITHIN TOLERANCE.

 AVERAGE MOMENT                     1.271E+09   TIME AVG. MOMENT      1.111E+09
 ALL MOMENT    RESIDUALS ARE ZERO
 LARGEST INCREMENT OF ROTATION      2.331E-31   AT NODE          1   DOF  6
   INSTANCE: RIGID_PRESS-1                                                                   
 LARGEST CORRECTION TO ROTATION     3.953E-31   AT NODE          1   DOF  6
   INSTANCE: RIGID_PRESS-1                                                                   
          THE MOMENT    EQUILIBRIUM RESPONSE WAS LINEAR IN THIS INCREMENT

  NUMBER OF EQUATIONS =       698     NUMBER OF FLOATING PT. OPERATIONS =  3.84E+05

     CHECK POINT   START OF SOLVER    

     CHECK POINT  END OF SOLVER       

       ELAPSED USER TIME (SEC)      =   0.0000    
       ELAPSED SYSTEM TIME (SEC)    =   0.0000    
       ELAPSED TOTAL CPU TIME (SEC) =   0.0000    
       ELAPSED WALLCLOCK TIME (SEC) =          0

               CONVERGENCE CHECKS FOR EQUILIBRIUM ITERATION     2

   MAX. PENETRATION ERROR -57.8393E-03  AT NODE PLATE-1.15 OF CONTACT PAIR 
   (ASSEMBLY_S_SURF-1,ASSEMBLY_RIGID_PRESS-1_SURF-3)
   MAX. CONTACT FORCE ERROR -6.43631E+03 AT NODE PLATE-1.15 OF CONTACT PAIR 
   (ASSEMBLY_S_SURF-1,ASSEMBLY_RIGID_PRESS-1_SURF-3)
          PENETRATION ERROR TOO LARGE COMPARED TO DISPLACEMENT INCREMENT.

 AVERAGE FORCE                      2.209E+06   TIME AVG. FORCE       1.924E+06
 LARGEST RESIDUAL FORCE             1.054E+07   AT NODE         15   DOF  2
   INSTANCE: PLATE-1                                                                         
 LARGEST INCREMENT OF DISP.         -1.25       AT NODE         16   DOF  1
   INSTANCE: PLATE-1                                                                         
 LARGEST CORRECTION TO DISP.        0.429       AT NODE         15   DOF  1
   INSTANCE: PLATE-1                                                                         
          FORCE     EQUILIBRIUM NOT ACHIEVED WITHIN TOLERANCE.

 AVERAGE MOMENT                     1.491E+09   TIME AVG. MOMENT      1.184E+09
 ALL MOMENT    RESIDUALS ARE ZERO
 LARGEST INCREMENT OF ROTATION     -2.649E-31   AT NODE          1   DOF  6
   INSTANCE: RIGID_PRESS-1                                                                   
 LARGEST CORRECTION TO ROTATION    -4.980E-31   AT NODE          1   DOF  6
   INSTANCE: RIGID_PRESS-1                                                                   
          THE MOMENT    EQUILIBRIUM EQUATIONS HAVE CONVERGED

  NUMBER OF EQUATIONS =       698     NUMBER OF FLOATING PT. OPERATIONS =  3.84E+05

     CHECK POINT   START OF SOLVER    

     CHECK POINT  END OF SOLVER       

       ELAPSED USER TIME (SEC)      =   0.0000    
       ELAPSED SYSTEM TIME (SEC)    =   0.0000    
       ELAPSED TOTAL CPU TIME (SEC) =   0.0000    
       ELAPSED WALLCLOCK TIME (SEC) =          0

               CONVERGENCE CHECKS FOR EQUILIBRIUM ITERATION     3

   MAX. PENETRATION ERROR -45.6966E-03  AT NODE PLATE-1.122 OF CONTACT PAIR 
   (ASSEMBLY_S_SURF-1,ASSEMBLY_RIGID_PRESS-1_SURF-3)
   MAX. CONTACT FORCE ERROR -5.04908E+03 AT NODE PLATE-1.122 OF CONTACT PAIR 
   (ASSEMBLY_S_SURF-1,ASSEMBLY_RIGID_PRESS-1_SURF-3)
          PENETRATION ERROR TOO LARGE COMPARED TO DISPLACEMENT INCREMENT.

 AVERAGE FORCE                      1.978E+06   TIME AVG. FORCE       1.847E+06
 LARGEST RESIDUAL FORCE            -1.254E+07   AT NODE         15   DOF  2
   INSTANCE: PLATE-1                                                                         
 LARGEST INCREMENT OF DISP.         -1.43       AT NODE         15   DOF  1
   INSTANCE: PLATE-1                                                                         
 LARGEST CORRECTION TO DISP.        0.384       AT NODE        122   DOF  1
   INSTANCE: PLATE-1                                                                         
          FORCE     EQUILIBRIUM NOT ACHIEVED WITHIN TOLERANCE.

 AVERAGE MOMENT                     1.340E+09   TIME AVG. MOMENT      1.134E+09
 ALL MOMENT    RESIDUALS ARE ZERO
 LARGEST INCREMENT OF ROTATION     -4.889E-32   AT NODE          1   DOF  6
   INSTANCE: RIGID_PRESS-1                                                                   
 LARGEST CORRECTION TO ROTATION     2.160E-31   AT NODE          1   DOF  6
   INSTANCE: RIGID_PRESS-1                                                                   
          THE MOMENT    EQUILIBRIUM EQUATIONS HAVE CONVERGED

  NUMBER OF EQUATIONS =       698     NUMBER OF FLOATING PT. OPERATIONS =  3.84E+05

     CHECK POINT   START OF SOLVER    

     CHECK POINT  END OF SOLVER       

       ELAPSED USER TIME (SEC)      =  2.00000E-02
       ELAPSED SYSTEM TIME (SEC)    =  1.00000E-02
       ELAPSED TOTAL CPU TIME (SEC) =  3.00000E-02
       ELAPSED WALLCLOCK TIME (SEC) =          0

               CONVERGENCE CHECKS FOR EQUILIBRIUM ITERATION     4

   MAX. PENETRATION ERROR -43.2768E-03  AT NODE PLATE-1.122 OF CONTACT PAIR 
   (ASSEMBLY_S_SURF-1,ASSEMBLY_RIGID_PRESS-1_SURF-3)
   MAX. CONTACT FORCE ERROR -4.81679E+03 AT NODE PLATE-1.122 OF CONTACT PAIR 
   (ASSEMBLY_S_SURF-1,ASSEMBLY_RIGID_PRESS-1_SURF-3)
          PENETRATION ERROR TOO LARGE COMPARED TO DISPLACEMENT INCREMENT.

 AVERAGE FORCE                      2.160E+06   TIME AVG. FORCE       1.908E+06
 LARGEST RESIDUAL FORCE            -1.163E+07   AT NODE        251   DOF  2
   INSTANCE: PLATE-1                                                                         
 LARGEST INCREMENT OF DISP.         -1.27       AT NODE         16   DOF  1
   INSTANCE: PLATE-1                                                                         
 LARGEST CORRECTION TO DISP.       -0.382       AT NODE        122   DOF  1
   INSTANCE: PLATE-1                                                                         
          FORCE     EQUILIBRIUM NOT ACHIEVED WITHIN TOLERANCE.

 AVERAGE MOMENT                     1.484E+09   TIME AVG. MOMENT      1.182E+09
 ALL MOMENT    RESIDUALS ARE ZERO
 LARGEST INCREMENT OF ROTATION     -7.862E-32   AT NODE          1   DOF  6
   INSTANCE: RIGID_PRESS-1                                                                   
 LARGEST CORRECTION TO ROTATION    -2.974E-32   AT NODE          1   DOF  6
   INSTANCE: RIGID_PRESS-1                                                                   
          THE MOMENT    EQUILIBRIUM EQUATIONS HAVE CONVERGED

  NUMBER OF EQUATIONS =       698     NUMBER OF FLOATING PT. OPERATIONS =  3.84E+05

     CHECK POINT   START OF SOLVER    

     CHECK POINT  END OF SOLVER       

       ELAPSED USER TIME (SEC)      =   0.0000    
       ELAPSED SYSTEM TIME (SEC)    =   0.0000    
       ELAPSED TOTAL CPU TIME (SEC) =   0.0000    
       ELAPSED WALLCLOCK TIME (SEC) =          0

               CONVERGENCE CHECKS FOR EQUILIBRIUM ITERATION     5

   MAX. PENETRATION ERROR -55.4292E-03  AT NODE PLATE-1.122 OF CONTACT PAIR 
   (ASSEMBLY_S_SURF-1,ASSEMBLY_RIGID_PRESS-1_SURF-3)
   MAX. CONTACT FORCE ERROR -6.12161E+03 AT NODE PLATE-1.122 OF CONTACT PAIR 
   (ASSEMBLY_S_SURF-1,ASSEMBLY_RIGID_PRESS-1_SURF-3)
          PENETRATION ERROR TOO LARGE COMPARED TO DISPLACEMENT INCREMENT.

 AVERAGE FORCE                      1.994E+06   TIME AVG. FORCE       1.852E+06
 LARGEST RESIDUAL FORCE            -1.305E+07   AT NODE        122   DOF  2
   INSTANCE: PLATE-1                                                                         
 LARGEST INCREMENT OF DISP.         -1.48       AT NODE         15   DOF  1
   INSTANCE: PLATE-1                                                                         
 LARGEST CORRECTION TO DISP.        0.434       AT NODE        122   DOF  1
   INSTANCE: PLATE-1                                                                         
          FORCE     EQUILIBRIUM NOT ACHIEVED WITHIN TOLERANCE.

 AVERAGE MOMENT                     1.339E+09   TIME AVG. MOMENT      1.134E+09
 ALL MOMENT    RESIDUALS ARE ZERO
 LARGEST INCREMENT OF ROTATION      4.812E-34   AT NODE          1   DOF  6
   INSTANCE: RIGID_PRESS-1                                                                   
 LARGEST CORRECTION TO ROTATION     7.911E-32   AT NODE          1   DOF  6
   INSTANCE: RIGID_PRESS-1                                                                   
          THE MOMENT    EQUILIBRIUM EQUATIONS HAVE CONVERGED
 

 ***NOTE: THE SOLUTION APPEARS TO BE DIVERGING. CONVERGENCE IS JUDGED UNLIKELY.


  INCREMENT     3 STARTS. ATTEMPT NUMBER  2, TIME INCREMENT  3.906E-04

  NUMBER OF EQUATIONS =       698     NUMBER OF FLOATING PT. OPERATIONS =  3.84E+05

     CHECK POINT   START OF SOLVER    

     CHECK POINT  END OF SOLVER       

       ELAPSED USER TIME (SEC)      =  1.00000E-02
       ELAPSED SYSTEM TIME (SEC)    =   0.0000    
       ELAPSED TOTAL CPU TIME (SEC) =  1.00000E-02
       ELAPSED WALLCLOCK TIME (SEC) =          0

               CONVERGENCE CHECKS FOR EQUILIBRIUM ITERATION     1

   MAX. PENETRATION ERROR -530.567E-06   AT NODE PLATE-1.15 OF CONTACT PAIR 
   (ASSEMBLY_S_SURF-1,ASSEMBLY_RIGID_PRESS-1_SURF-3)
   MAX. CONTACT FORCE ERROR -58.6223      AT NODE PLATE-1.15 OF CONTACT PAIR 
   (ASSEMBLY_S_SURF-1,ASSEMBLY_RIGID_PRESS-1_SURF-3)
          THE CONTACT CONSTRAINTS HAVE CONVERGED.

 AVERAGE FORCE                      2.214E+06   TIME AVG. FORCE       1.925E+06
 LARGEST RESIDUAL FORCE             6.747E+05   AT NODE        121   DOF  1
   INSTANCE: PLATE-1                                                                         
 LARGEST INCREMENT OF DISP.        -0.368       AT NODE         15   DOF  1
   INSTANCE: PLATE-1                                                                         
 LARGEST CORRECTION TO DISP.        0.100       AT NODE        122   DOF  2
   INSTANCE: PLATE-1                                                                         
          FORCE     EQUILIBRIUM NOT ACHIEVED WITHIN TOLERANCE.

 AVERAGE MOMENT                     1.629E+09   TIME AVG. MOMENT      1.231E+09
 ALL MOMENT    RESIDUALS ARE ZERO
 LARGEST INCREMENT OF ROTATION     -1.592E-31   AT NODE          1   DOF  6
   INSTANCE: RIGID_PRESS-1                                                                   
 LARGEST CORRECTION TO ROTATION    -1.187E-31   AT NODE          1   DOF  6
   INSTANCE: RIGID_PRESS-1                                                                   
          THE MOMENT    EQUILIBRIUM RESPONSE WAS LINEAR IN THIS INCREMENT

  NUMBER OF EQUATIONS =       698     NUMBER OF FLOATING PT. OPERATIONS =  3.84E+05

     CHECK POINT   START OF SOLVER    

     CHECK POINT  END OF SOLVER       

       ELAPSED USER TIME (SEC)      =  1.00000E-02
       ELAPSED SYSTEM TIME (SEC)    =   0.0000    
       ELAPSED TOTAL CPU TIME (SEC) =  1.00000E-02
       ELAPSED WALLCLOCK TIME (SEC) =          0

               CONVERGENCE CHECKS FOR EQUILIBRIUM ITERATION     2

   MAX. PENETRATION ERROR -14.0717E-06  AT NODE PLATE-1.122 OF CONTACT PAIR 
   (ASSEMBLY_S_SURF-1,ASSEMBLY_RIGID_PRESS-1_SURF-3)
   MAX. CONTACT FORCE ERROR -1.55503     AT NODE PLATE-1.122 OF CONTACT PAIR 
   (ASSEMBLY_S_SURF-1,ASSEMBLY_RIGID_PRESS-1_SURF-3)
          THE CONTACT CONSTRAINTS HAVE CONVERGED.

 AVERAGE FORCE                      2.233E+06   TIME AVG. FORCE       1.932E+06
 LARGEST RESIDUAL FORCE             1.017E+05   AT NODE        121   DOF  2
   INSTANCE: PLATE-1                                                                         
 LARGEST INCREMENT OF DISP.        -0.359       AT NODE         15   DOF  1
   INSTANCE: PLATE-1                                                                         
 LARGEST CORRECTION TO DISP.       -8.670E-03   AT NODE        122   DOF  1
   INSTANCE: PLATE-1                                                                         
          FORCE     EQUILIBRIUM NOT ACHIEVED WITHIN TOLERANCE.

 AVERAGE MOMENT                     1.627E+09   TIME AVG. MOMENT      1.230E+09
 ALL MOMENT    RESIDUALS ARE ZERO
 LARGEST INCREMENT OF ROTATION     -1.567E-31   AT NODE          1   DOF  6
   INSTANCE: RIGID_PRESS-1                                                                   
 LARGEST CORRECTION TO ROTATION     2.584E-33   AT NODE          1   DOF  6
   INSTANCE: RIGID_PRESS-1                                                                   
          THE MOMENT    EQUILIBRIUM EQUATIONS HAVE CONVERGED

  NUMBER OF EQUATIONS =       698     NUMBER OF FLOATING PT. OPERATIONS =  3.84E+05

     CHECK POINT   START OF SOLVER    

     CHECK POINT  END OF SOLVER       

       ELAPSED USER TIME (SEC)      =  1.00000E-02
       ELAPSED SYSTEM TIME (SEC)    =   0.0000    
       ELAPSED TOTAL CPU TIME (SEC) =  1.00000E-02
       ELAPSED WALLCLOCK TIME (SEC) =          0

               CONVERGENCE CHECKS FOR EQUILIBRIUM ITERATION     3

   MAX. PENETRATION ERROR -5.36807E-09 AT NODE PLATE-1.122 OF CONTACT PAIR 
   (ASSEMBLY_S_SURF-1,ASSEMBLY_RIGID_PRESS-1_SURF-3)
   MAX. CONTACT FORCE ERROR -593.210E-06   AT NODE PLATE-1.122 OF CONTACT PAIR 
   (ASSEMBLY_S_SURF-1,ASSEMBLY_RIGID_PRESS-1_SURF-3)
          THE CONTACT CONSTRAINTS HAVE CONVERGED.

 AVERAGE FORCE                      2.230E+06   TIME AVG. FORCE       1.931E+06
 LARGEST RESIDUAL FORCE              236.       AT NODE        122   DOF  2
   INSTANCE: PLATE-1                                                                         
 LARGEST INCREMENT OF DISP.        -0.359       AT NODE         15   DOF  1
   INSTANCE: PLATE-1                                                                         
 LARGEST CORRECTION TO DISP.        7.479E-04   AT NODE        121   DOF  2
   INSTANCE: PLATE-1                                                                         
          THE FORCE     EQUILIBRIUM EQUATIONS HAVE CONVERGED

 AVERAGE MOMENT                     1.626E+09   TIME AVG. MOMENT      1.230E+09
 ALL MOMENT    RESIDUALS ARE ZERO
 LARGEST INCREMENT OF ROTATION     -1.569E-31   AT NODE          1   DOF  6
   INSTANCE: RIGID_PRESS-1                                                                   
 LARGEST CORRECTION TO ROTATION    -2.649E-34   AT NODE          1   DOF  6
   INSTANCE: RIGID_PRESS-1                                                                   
          THE MOMENT    EQUILIBRIUM EQUATIONS HAVE CONVERGED
          TIME INCREMENT MAY NOW INCREASE TO    5.859E-04

 ITERATION SUMMARY FOR THE INCREMENT:   3 TOTAL ITERATIONS, OF WHICH
   0 ARE SEVERE DISCONTINUITY ITERATIONS AND  3 ARE EQUILIBRIUM ITERATIONS.

 TIME INCREMENT COMPLETED  3.906E-04,  FRACTION OF STEP COMPLETED  8.203E-02
 STEP TIME COMPLETED       8.203E-03,  TOTAL TIME COMPLETED        8.203E-03


  INCREMENT     4 STARTS. ATTEMPT NUMBER  1, TIME INCREMENT  5.859E-04

  NUMBER OF EQUATIONS =       698     NUMBER OF FLOATING PT. OPERATIONS =  3.84E+05

     CHECK POINT   START OF SOLVER    

     CHECK POINT  END OF SOLVER       

       ELAPSED USER TIME (SEC)      =   0.0000    
       ELAPSED SYSTEM TIME (SEC)    =  1.00000E-02
       ELAPSED TOTAL CPU TIME (SEC) =  1.00000E-02
       ELAPSED WALLCLOCK TIME (SEC) =          0

               CONVERGENCE CHECKS FOR EQUILIBRIUM ITERATION     1

   MAX. PENETRATION ERROR -193.698E-06   AT NODE PLATE-1.122 OF CONTACT PAIR 
   (ASSEMBLY_S_SURF-1,ASSEMBLY_RIGID_PRESS-1_SURF-3)
   MAX. CONTACT FORCE ERROR -21.4463      AT NODE PLATE-1.122 OF CONTACT PAIR 
   (ASSEMBLY_S_SURF-1,ASSEMBLY_RIGID_PRESS-1_SURF-3)
          THE CONTACT CONSTRAINTS HAVE CONVERGED.

 AVERAGE FORCE                      2.104E+06   TIME AVG. FORCE       1.974E+06
 LARGEST RESIDUAL FORCE            -1.689E+06   AT NODE        251   DOF  1
   INSTANCE: PLATE-1                                                                         
 LARGEST INCREMENT OF DISP.        -0.461       AT NODE         15   DOF  1
   INSTANCE: PLATE-1                                                                         
 LARGEST CORRECTION TO DISP.       -7.736E-02   AT NODE        122   DOF  1
   INSTANCE: PLATE-1                                                                         
          FORCE     EQUILIBRIUM NOT ACHIEVED WITHIN TOLERANCE.

 AVERAGE MOMENT                     1.480E+09   TIME AVG. MOMENT      1.292E+09
 ALL MOMENT    RESIDUALS ARE ZERO
 LARGEST INCREMENT OF ROTATION     -1.015E-31   AT NODE          1   DOF  6
   INSTANCE: RIGID_PRESS-1                                                                   
 LARGEST CORRECTION TO ROTATION     1.339E-31   AT NODE          1   DOF  6
   INSTANCE: RIGID_PRESS-1                                                                   
          THE MOMENT    EQUILIBRIUM RESPONSE WAS LINEAR IN THIS INCREMENT

  NUMBER OF EQUATIONS =       698     NUMBER OF FLOATING PT. OPERATIONS =  3.84E+05

     CHECK POINT   START OF SOLVER    

     CHECK POINT  END OF SOLVER       

       ELAPSED USER TIME (SEC)      =  1.00000E-02
       ELAPSED SYSTEM TIME (SEC)    =   0.0000    
       ELAPSED TOTAL CPU TIME (SEC) =  1.00000E-02
       ELAPSED WALLCLOCK TIME (SEC) =          0

               CONVERGENCE CHECKS FOR EQUILIBRIUM ITERATION     2

   MAX. PENETRATION ERROR -9.65552E-06 AT NODE PLATE-1.122 OF CONTACT PAIR 
   (ASSEMBLY_S_SURF-1,ASSEMBLY_RIGID_PRESS-1_SURF-3)
   MAX. CONTACT FORCE ERROR -1.06916     AT NODE PLATE-1.122 OF CONTACT PAIR 
   (ASSEMBLY_S_SURF-1,ASSEMBLY_RIGID_PRESS-1_SURF-3)
          THE CONTACT CONSTRAINTS HAVE CONVERGED.

 AVERAGE FORCE                      2.131E+06   TIME AVG. FORCE       1.981E+06
 LARGEST RESIDUAL FORCE            -2.015E+04   AT NODE        140   DOF  2
   INSTANCE: PLATE-1                                                                         
 LARGEST INCREMENT OF DISP.        -0.455       AT NODE         15   DOF  1
   INSTANCE: PLATE-1                                                                         
 LARGEST CORRECTION TO DISP.       -2.248E-02   AT NODE        251   DOF  1
   INSTANCE: PLATE-1                                                                         
          FORCE     EQUILIBRIUM NOT ACHIEVED WITHIN TOLERANCE.

 AVERAGE MOMENT                     1.473E+09   TIME AVG. MOMENT      1.291E+09
 ALL MOMENT    RESIDUALS ARE ZERO
 LARGEST INCREMENT OF ROTATION     -9.554E-32   AT NODE          1   DOF  6
   INSTANCE: RIGID_PRESS-1                                                                   
 LARGEST CORRECTION TO ROTATION     5.944E-33   AT NODE          1   DOF  6
   INSTANCE: RIGID_PRESS-1                                                                   
          THE MOMENT    EQUILIBRIUM EQUATIONS HAVE CONVERGED

  NUMBER OF EQUATIONS =       698     NUMBER OF FLOATING PT. OPERATIONS =  3.84E+05

     CHECK POINT   START OF SOLVER    

     CHECK POINT  END OF SOLVER       

       ELAPSED USER TIME (SEC)      =  1.00000E-02
       ELAPSED SYSTEM TIME (SEC)    =   0.0000    
       ELAPSED TOTAL CPU TIME (SEC) =  1.00000E-02
       ELAPSED WALLCLOCK TIME (SEC) =          0

               CONVERGENCE CHECKS FOR EQUILIBRIUM ITERATION     3

   MAX. PENETRATION ERROR -19.5172E-09  AT NODE PLATE-1.122 OF CONTACT PAIR 
   (ASSEMBLY_S_SURF-1,ASSEMBLY_RIGID_PRESS-1_SURF-3)
   MAX. CONTACT FORCE ERROR -2.16113E-03 AT NODE PLATE-1.122 OF CONTACT PAIR 
   (ASSEMBLY_S_SURF-1,ASSEMBLY_RIGID_PRESS-1_SURF-3)
          THE CONTACT CONSTRAINTS HAVE CONVERGED.

 AVERAGE FORCE                      2.130E+06   TIME AVG. FORCE       1.981E+06
 LARGEST RESIDUAL FORCE             -66.5       AT NODE        140   DOF  2
   INSTANCE: PLATE-1                                                                         
 LARGEST INCREMENT OF DISP.        -0.455       AT NODE         15   DOF  1
   INSTANCE: PLATE-1                                                                         
 LARGEST CORRECTION TO DISP.        2.832E-04   AT NODE        122   DOF  1
   INSTANCE: PLATE-1                                                                         
          THE FORCE     EQUILIBRIUM EQUATIONS HAVE CONVERGED

 AVERAGE MOMENT                     1.473E+09   TIME AVG. MOMENT      1.290E+09
 ALL MOMENT    RESIDUALS ARE ZERO
 LARGEST INCREMENT OF ROTATION     -9.628E-32   AT NODE          1   DOF  6
   INSTANCE: RIGID_PRESS-1                                                                   
 LARGEST CORRECTION TO ROTATION    -7.405E-34   AT NODE          1   DOF  6
   INSTANCE: RIGID_PRESS-1                                                                   
          THE MOMENT    EQUILIBRIUM EQUATIONS HAVE CONVERGED
          TIME INCREMENT MAY NOW INCREASE TO    8.789E-04

 ITERATION SUMMARY FOR THE INCREMENT:   3 TOTAL ITERATIONS, OF WHICH
   0 ARE SEVERE DISCONTINUITY ITERATIONS AND  3 ARE EQUILIBRIUM ITERATIONS.

 TIME INCREMENT COMPLETED  5.859E-04,  FRACTION OF STEP COMPLETED  8.789E-02
 STEP TIME COMPLETED       8.789E-03,  TOTAL TIME COMPLETED        8.789E-03


  INCREMENT     5 STARTS. ATTEMPT NUMBER  1, TIME INCREMENT  8.789E-04

  NUMBER OF EQUATIONS =       698     NUMBER OF FLOATING PT. OPERATIONS =  3.84E+05

     CHECK POINT   START OF SOLVER    

     CHECK POINT  END OF SOLVER       

       ELAPSED USER TIME (SEC)      =   0.0000    
       ELAPSED SYSTEM TIME (SEC)    =   0.0000    
       ELAPSED TOTAL CPU TIME (SEC) =   0.0000    
       ELAPSED WALLCLOCK TIME (SEC) =          0

               CONVERGENCE CHECKS FOR EQUILIBRIUM ITERATION     1

   MAX. PENETRATION ERROR -2.25937E-03 AT NODE PLATE-1.15 OF CONTACT PAIR 
   (ASSEMBLY_S_SURF-1,ASSEMBLY_RIGID_PRESS-1_SURF-3)
   MAX. CONTACT FORCE ERROR -250.756       AT NODE PLATE-1.15 OF CONTACT PAIR 
   (ASSEMBLY_S_SURF-1,ASSEMBLY_RIGID_PRESS-1_SURF-3)
          THE CONTACT CONSTRAINTS HAVE CONVERGED.

 AVERAGE FORCE                      2.097E+06   TIME AVG. FORCE       2.004E+06
 LARGEST RESIDUAL FORCE            -9.368E+04   AT NODE        145   DOF  1
   INSTANCE: PLATE-1                                                                         
 LARGEST INCREMENT OF DISP.        -0.530       AT NODE         65   DOF  1
   INSTANCE: PLATE-1                                                                         
 LARGEST CORRECTION TO DISP.        0.197       AT NODE         15   DOF  1
   INSTANCE: PLATE-1                                                                         
          FORCE     EQUILIBRIUM NOT ACHIEVED WITHIN TOLERANCE.

 AVERAGE MOMENT                     1.362E+09   TIME AVG. MOMENT      1.305E+09
 ALL MOMENT    RESIDUALS ARE ZERO
 LARGEST INCREMENT OF ROTATION     -2.860E-32   AT NODE          1   DOF  6
   INSTANCE: RIGID_PRESS-1                                                                   
 LARGEST CORRECTION TO ROTATION     1.158E-31   AT NODE          1   DOF  6
   INSTANCE: RIGID_PRESS-1                                                                   
          THE MOMENT    EQUILIBRIUM RESPONSE WAS LINEAR IN THIS INCREMENT

  NUMBER OF EQUATIONS =       698     NUMBER OF FLOATING PT. OPERATIONS =  3.84E+05

     CHECK POINT   START OF SOLVER    

     CHECK POINT  END OF SOLVER       

       ELAPSED USER TIME (SEC)      =   0.0000    
       ELAPSED SYSTEM TIME (SEC)    =   0.0000    
       ELAPSED TOTAL CPU TIME (SEC) =   0.0000    
       ELAPSED WALLCLOCK TIME (SEC) =          0

               CONVERGENCE CHECKS FOR EQUILIBRIUM ITERATION     2

   MAX. PENETRATION ERROR -2.42517E-09 AT NODE PLATE-1.122 OF CONTACT PAIR 
   (ASSEMBLY_S_SURF-1,ASSEMBLY_RIGID_PRESS-1_SURF-3)
   MAX. CONTACT FORCE ERROR -269.167E-06   AT NODE PLATE-1.122 OF CONTACT PAIR 
   (ASSEMBLY_S_SURF-1,ASSEMBLY_RIGID_PRESS-1_SURF-3)
          THE CONTACT CONSTRAINTS HAVE CONVERGED.

 AVERAGE FORCE                      2.122E+06   TIME AVG. FORCE       2.009E+06
 LARGEST RESIDUAL FORCE              492.       AT NODE         13   DOF  2
   INSTANCE: PLATE-1                                                                         
 LARGEST INCREMENT OF DISP.        -0.530       AT NODE         65   DOF  1
   INSTANCE: PLATE-1                                                                         
 LARGEST CORRECTION TO DISP.        2.713E-03   AT NODE         14   DOF  1
   INSTANCE: PLATE-1                                                                         
          THE FORCE     EQUILIBRIUM EQUATIONS HAVE CONVERGED

 AVERAGE MOMENT                     1.359E+09   TIME AVG. MOMENT      1.304E+09
 ALL MOMENT    RESIDUALS ARE ZERO
 LARGEST INCREMENT OF ROTATION     -2.385E-32   AT NODE          1   DOF  6
   INSTANCE: RIGID_PRESS-1                                                                   
 LARGEST CORRECTION TO ROTATION     4.754E-33   AT NODE          1   DOF  6
   INSTANCE: RIGID_PRESS-1                                                                   
          THE MOMENT    EQUILIBRIUM EQUATIONS HAVE CONVERGED
          TIME INCREMENT MAY NOW INCREASE TO    1.318E-03

 ITERATION SUMMARY FOR THE INCREMENT:   2 TOTAL ITERATIONS, OF WHICH
   0 ARE SEVERE DISCONTINUITY ITERATIONS AND  2 ARE EQUILIBRIUM ITERATIONS.

 TIME INCREMENT COMPLETED  8.789E-04,  FRACTION OF STEP COMPLETED  9.668E-02
 STEP TIME COMPLETED       9.668E-03,  TOTAL TIME COMPLETED        9.668E-03


  INCREMENT     6 STARTS. ATTEMPT NUMBER  1, TIME INCREMENT  1.318E-03

  NUMBER OF EQUATIONS =       698     NUMBER OF FLOATING PT. OPERATIONS =  3.84E+05

     CHECK POINT   START OF SOLVER    

     CHECK POINT  END OF SOLVER       

       ELAPSED USER TIME (SEC)      =  1.00000E-02
       ELAPSED SYSTEM TIME (SEC)    =   0.0000    
       ELAPSED TOTAL CPU TIME (SEC) =  1.00000E-02
       ELAPSED WALLCLOCK TIME (SEC) =          0

                    2 SEVERE DISCONTINUITIES OCCURRED DURING THIS ITERATION.
                    2 POINTS CHANGED FROM CLOSED TO OPEN

               CONVERGENCE CHECKS FOR SEVERE DISCONTINUITY ITERATION     1

   MAX. CONTACT FORCE ERROR -2.34195E+06 AT NODE PLATE-1.122 OF CONTACT PAIR 
   (ASSEMBLY_S_SURF-1,ASSEMBLY_RIGID_PRESS-1_SURF-3)
          THE ESTIMATED CONTACT FORCE ERROR IS OUTSIDE OF CONVERGENCE TOLERANCES.

 AVERAGE FORCE                      2.825E+06   TIME AVG. FORCE       2.145E+06
 LARGEST RESIDUAL FORCE             1.567E+06   AT NODE        122   DOF  1
   INSTANCE: PLATE-1                                                                         
 LARGEST INCREMENT OF DISP.        -0.667       AT NODE         65   DOF  1
   INSTANCE: PLATE-1                                                                         
 LARGEST CORRECTION TO DISP.        0.284       AT NODE         15   DOF  1
   INSTANCE: PLATE-1                                                                         
          FORCE     EQUILIBRIUM NOT ACHIEVED WITHIN TOLERANCE.

 AVERAGE MOMENT                     1.876E+09   TIME AVG. MOMENT      1.399E+09
 ALL MOMENT    RESIDUALS ARE ZERO
 LARGEST INCREMENT OF ROTATION      2.381E-32   AT NODE          1   DOF  6
   INSTANCE: RIGID_PRESS-1                                                                   
 LARGEST CORRECTION TO ROTATION     5.959E-32   AT NODE          1   DOF  6
   INSTANCE: RIGID_PRESS-1                                                                   
          THE MOMENT    EQUILIBRIUM EQUATIONS HAVE CONVERGED

  NUMBER OF EQUATIONS =       696     NUMBER OF FLOATING PT. OPERATIONS =  3.82E+05

     CHECK POINT   START OF SOLVER    

     CHECK POINT  END OF SOLVER       

       ELAPSED USER TIME (SEC)      =  1.00000E-02
       ELAPSED SYSTEM TIME (SEC)    =   0.0000    
       ELAPSED TOTAL CPU TIME (SEC) =  1.00000E-02
       ELAPSED WALLCLOCK TIME (SEC) =          0

               CONVERGENCE CHECKS FOR EQUILIBRIUM ITERATION     1


 AVERAGE FORCE                      2.625E+06   TIME AVG. FORCE       2.112E+06
 LARGEST RESIDUAL FORCE             2.080E+05   AT NODE        251   DOF  2
   INSTANCE: PLATE-1                                                                         
 LARGEST INCREMENT OF DISP.         0.715       AT NODE         72   DOF  1
   INSTANCE: PLATE-1                                                                         
 LARGEST CORRECTION TO DISP.        0.105       AT NODE        122   DOF  1
   INSTANCE: PLATE-1                                                                         
          FORCE     EQUILIBRIUM NOT ACHIEVED WITHIN TOLERANCE.

 AVERAGE MOMENT                     1.795E+09   TIME AVG. MOMENT      1.386E+09
 ALL MOMENT    RESIDUALS ARE ZERO
 LARGEST INCREMENT OF ROTATION      1.153E-32   AT NODE          1   DOF  6
   INSTANCE: RIGID_PRESS-1                                                                   
 LARGEST CORRECTION TO ROTATION    -1.228E-32   AT NODE          1   DOF  6
   INSTANCE: RIGID_PRESS-1                                                                   
          THE MOMENT    EQUILIBRIUM RESPONSE WAS LINEAR IN THIS INCREMENT

  NUMBER OF EQUATIONS =       696     NUMBER OF FLOATING PT. OPERATIONS =  3.82E+05

     CHECK POINT   START OF SOLVER    

     CHECK POINT  END OF SOLVER       

       ELAPSED USER TIME (SEC)      =   0.0000    
       ELAPSED SYSTEM TIME (SEC)    =   0.0000    
       ELAPSED TOTAL CPU TIME (SEC) =   0.0000    
       ELAPSED WALLCLOCK TIME (SEC) =          0

               CONVERGENCE CHECKS FOR EQUILIBRIUM ITERATION     2


 AVERAGE FORCE                      2.636E+06   TIME AVG. FORCE       2.113E+06
 LARGEST RESIDUAL FORCE             2.055E+03   AT NODE         15   DOF  2
[...]
   INSTANCE: RIGID_PRESS-1                                                                   
 LARGEST CORRECTION TO ROTATION     1.302E-30   AT NODE          1   DOF  6
   INSTANCE: RIGID_PRESS-1                                                                   
          THE MOMENT    EQUILIBRIUM EQUATIONS HAVE CONVERGED

  NUMBER OF EQUATIONS =       694     NUMBER OF FLOATING PT. OPERATIONS =  3.80E+05

     CHECK POINT   START OF SOLVER    

     CHECK POINT  END OF SOLVER       

       ELAPSED USER TIME (SEC)      =   0.0000    
       ELAPSED SYSTEM TIME (SEC)    =  1.00000E-02
       ELAPSED TOTAL CPU TIME (SEC) =  1.00000E-02
       ELAPSED WALLCLOCK TIME (SEC) =          0

               CONVERGENCE CHECKS FOR EQUILIBRIUM ITERATION     4

   MAX. PENETRATION ERROR -160.990E-09   AT NODE PLATE-1.124 OF CONTACT PAIR 
   (ASSEMBLY_S_SURF-1,ASSEMBLY_RIGID_PRESS-1_SURF-3)
   MAX. CONTACT FORCE ERROR -26.8769E-03  AT NODE PLATE-1.124 OF CONTACT PAIR 
   (ASSEMBLY_S_SURF-1,ASSEMBLY_RIGID_PRESS-1_SURF-3)
          THE CONTACT CONSTRAINTS HAVE CONVERGED.

 AVERAGE FORCE                      5.299E+06   TIME AVG. FORCE       3.846E+06
 LARGEST RESIDUAL FORCE            -4.931E+04   AT NODE        130   DOF  2
   INSTANCE: PLATE-1                                                                         
 LARGEST INCREMENT OF DISP.        -1.780E-03   AT NODE        142   DOF  1
   INSTANCE: PLATE-1                                                                         
 LARGEST CORRECTION TO DISP.        3.107E-02   AT NODE        124   DOF  1
   INSTANCE: PLATE-1                                                                         
          FORCE     EQUILIBRIUM NOT ACHIEVED WITHIN TOLERANCE.

 AVERAGE MOMENT                     5.801E+09   TIME AVG. MOMENT      3.532E+09
 ALL MOMENT    RESIDUALS ARE ZERO
 LARGEST INCREMENT OF ROTATION      1.243E-32   AT NODE          1   DOF  6
   INSTANCE: RIGID_PRESS-1                                                                   
 LARGEST CORRECTION TO ROTATION    -1.302E-30   AT NODE          1   DOF  6
   INSTANCE: RIGID_PRESS-1                                                                   
          THE MOMENT    EQUILIBRIUM EQUATIONS HAVE CONVERGED

  NUMBER OF EQUATIONS =       694     NUMBER OF FLOATING PT. OPERATIONS =  3.80E+05

     CHECK POINT   START OF SOLVER    

     CHECK POINT  END OF SOLVER       

       ELAPSED USER TIME (SEC)      =   0.0000    
       ELAPSED SYSTEM TIME (SEC)    =   0.0000    
       ELAPSED TOTAL CPU TIME (SEC) =   0.0000    
       ELAPSED WALLCLOCK TIME (SEC) =          0
 

 ***WARNING: THE SYSTEM MATRIX HAS 2 NEGATIVE EIGENVALUES.
             EXPLANATIONS ARE SUGGESTED AFTER THE FIRST OCCURRENCE OF THIS MESSAGE.

               CONVERGENCE CHECKS FOR EQUILIBRIUM ITERATION     5

   MAX. PENETRATION ERROR -9.98732E-06 AT NODE PLATE-1.124 OF CONTACT PAIR 
   (ASSEMBLY_S_SURF-1,ASSEMBLY_RIGID_PRESS-1_SURF-3)
   MAX. CONTACT FORCE ERROR -1.66719     AT NODE PLATE-1.124 OF CONTACT PAIR 
   (ASSEMBLY_S_SURF-1,ASSEMBLY_RIGID_PRESS-1_SURF-3)
          THE CONTACT CONSTRAINTS HAVE CONVERGED.

 AVERAGE FORCE                      5.360E+06   TIME AVG. FORCE       3.848E+06
 LARGEST RESIDUAL FORCE            -6.542E+05   AT NODE        125   DOF  2
   INSTANCE: PLATE-1                                                                         
 LARGEST INCREMENT OF DISP.        -2.946E-02   AT NODE        124   DOF  1
   INSTANCE: PLATE-1                                                                         
 LARGEST CORRECTION TO DISP.       -3.098E-02   AT NODE        124   DOF  1
   INSTANCE: PLATE-1                                                                         
          FORCE     EQUILIBRIUM NOT ACHIEVED WITHIN TOLERANCE.

 AVERAGE MOMENT                     5.860E+09   TIME AVG. MOMENT      3.533E+09
 ALL MOMENT    RESIDUALS ARE ZERO
 LARGEST INCREMENT OF ROTATION      1.314E-30   AT NODE          1   DOF  6
   INSTANCE: RIGID_PRESS-1                                                                   
 LARGEST CORRECTION TO ROTATION     1.301E-30   AT NODE          1   DOF  6
   INSTANCE: RIGID_PRESS-1                                                                   
          THE MOMENT    EQUILIBRIUM EQUATIONS HAVE CONVERGED
 

 ***NOTE: THE SOLUTION APPEARS TO BE DIVERGING. CONVERGENCE IS JUDGED UNLIKELY.


  INCREMENT    35 STARTS. ATTEMPT NUMBER  2, TIME INCREMENT  1.000E-06

  NUMBER OF EQUATIONS =       694     NUMBER OF FLOATING PT. OPERATIONS =  3.80E+05

     CHECK POINT   START OF SOLVER    

     CHECK POINT  END OF SOLVER       

       ELAPSED USER TIME (SEC)      =  1.00000E-02
       ELAPSED SYSTEM TIME (SEC)    =   0.0000    
       ELAPSED TOTAL CPU TIME (SEC) =  1.00000E-02
       ELAPSED WALLCLOCK TIME (SEC) =          0
 

 ***WARNING: THE SYSTEM MATRIX HAS 2 NEGATIVE EIGENVALUES.
             EXPLANATIONS ARE SUGGESTED AFTER THE FIRST OCCURRENCE OF THIS MESSAGE.

               CONVERGENCE CHECKS FOR EQUILIBRIUM ITERATION     1

   MAX. PENETRATION ERROR -2.00340E-06 AT NODE PLATE-1.124 OF CONTACT PAIR 
   (ASSEMBLY_S_SURF-1,ASSEMBLY_RIGID_PRESS-1_SURF-3)
   MAX. CONTACT FORCE ERROR -334.452E-03   AT NODE PLATE-1.124 OF CONTACT PAIR 
   (ASSEMBLY_S_SURF-1,ASSEMBLY_RIGID_PRESS-1_SURF-3)
          THE CONTACT CONSTRAINTS HAVE CONVERGED.

 AVERAGE FORCE                      5.323E+06   TIME AVG. FORCE       3.847E+06
 LARGEST RESIDUAL FORCE            -1.632E+05   AT NODE        125   DOF  2
   INSTANCE: PLATE-1                                                                         
 LARGEST INCREMENT OF DISP.        -7.205E-03   AT NODE        124   DOF  1
   INSTANCE: PLATE-1                                                                         
 LARGEST CORRECTION TO DISP.       -8.482E-03   AT NODE        124   DOF  1
   INSTANCE: PLATE-1                                                                         
          FORCE     EQUILIBRIUM NOT ACHIEVED WITHIN TOLERANCE.

 AVERAGE MOMENT                     5.809E+09   TIME AVG. MOMENT      3.532E+09
 ALL MOMENT    RESIDUALS ARE ZERO
 LARGEST INCREMENT OF ROTATION      1.282E-30   AT NODE          1   DOF  6
   INSTANCE: RIGID_PRESS-1                                                                   
 LARGEST CORRECTION TO ROTATION     1.270E-30   AT NODE          1   DOF  6
   INSTANCE: RIGID_PRESS-1                                                                   
          THE MOMENT    EQUILIBRIUM RESPONSE WAS LINEAR IN THIS INCREMENT

  NUMBER OF EQUATIONS =       694     NUMBER OF FLOATING PT. OPERATIONS =  3.80E+05

     CHECK POINT   START OF SOLVER    

     CHECK POINT  END OF SOLVER       

       ELAPSED USER TIME (SEC)      =  1.00000E-02
       ELAPSED SYSTEM TIME (SEC)    =   0.0000    
       ELAPSED TOTAL CPU TIME (SEC) =  1.00000E-02
       ELAPSED WALLCLOCK TIME (SEC) =          0

               CONVERGENCE CHECKS FOR EQUILIBRIUM ITERATION     2

   MAX. PENETRATION ERROR -1.96930E-09 AT NODE PLATE-1.124 OF CONTACT PAIR 
   (ASSEMBLY_S_SURF-1,ASSEMBLY_RIGID_PRESS-1_SURF-3)
   MAX. CONTACT FORCE ERROR -328.768E-06   AT NODE PLATE-1.124 OF CONTACT PAIR 
   (ASSEMBLY_S_SURF-1,ASSEMBLY_RIGID_PRESS-1_SURF-3)
          THE CONTACT CONSTRAINTS HAVE CONVERGED.

 AVERAGE FORCE                      5.296E+06   TIME AVG. FORCE       3.846E+06
 LARGEST RESIDUAL FORCE            -2.150E+04   AT NODE        130   DOF  2
   INSTANCE: PLATE-1                                                                         
 LARGEST INCREMENT OF DISP.        -7.902E-04   AT NODE         66   DOF  1
   INSTANCE: PLATE-1                                                                         
 LARGEST CORRECTION TO DISP.        7.850E-03   AT NODE        124   DOF  1
   INSTANCE: PLATE-1                                                                         
          FORCE     EQUILIBRIUM NOT ACHIEVED WITHIN TOLERANCE.

 AVERAGE MOMENT                     5.794E+09   TIME AVG. MOMENT      3.532E+09
 ALL MOMENT    RESIDUALS ARE ZERO
 LARGEST INCREMENT OF ROTATION      6.877E-33   AT NODE          1   DOF  6
   INSTANCE: RIGID_PRESS-1                                                                   
 LARGEST CORRECTION TO ROTATION    -1.276E-30   AT NODE          1   DOF  6
   INSTANCE: RIGID_PRESS-1                                                                   
          THE MOMENT    EQUILIBRIUM EQUATIONS HAVE CONVERGED

  NUMBER OF EQUATIONS =       694     NUMBER OF FLOATING PT. OPERATIONS =  3.80E+05

     CHECK POINT   START OF SOLVER    

     CHECK POINT  END OF SOLVER       

       ELAPSED USER TIME (SEC)      =   0.0000    
       ELAPSED SYSTEM TIME (SEC)    =   0.0000    
       ELAPSED TOTAL CPU TIME (SEC) =   0.0000    
       ELAPSED WALLCLOCK TIME (SEC) =          0
 

 ***WARNING: THE SYSTEM MATRIX HAS 2 NEGATIVE EIGENVALUES.
             EXPLANATIONS ARE SUGGESTED AFTER THE FIRST OCCURRENCE OF THIS MESSAGE.

               CONVERGENCE CHECKS FOR EQUILIBRIUM ITERATION     3

   MAX. PENETRATION ERROR -312.533E-09   AT NODE PLATE-1.124 OF CONTACT PAIR 
   (ASSEMBLY_S_SURF-1,ASSEMBLY_RIGID_PRESS-1_SURF-3)
   MAX. CONTACT FORCE ERROR -52.1749E-03  AT NODE PLATE-1.124 OF CONTACT PAIR 
   (ASSEMBLY_S_SURF-1,ASSEMBLY_RIGID_PRESS-1_SURF-3)
          THE CONTACT CONSTRAINTS HAVE CONVERGED.

 AVERAGE FORCE                      5.328E+06   TIME AVG. FORCE       3.847E+06
 LARGEST RESIDUAL FORCE            -1.752E+05   AT NODE        125   DOF  2
   INSTANCE: PLATE-1                                                                         
 LARGEST INCREMENT OF DISP.        -8.035E-03   AT NODE        124   DOF  1
   INSTANCE: PLATE-1                                                                         
 LARGEST CORRECTION TO DISP.       -8.680E-03   AT NODE        124   DOF  1
   INSTANCE: PLATE-1                                                                         
          FORCE     EQUILIBRIUM NOT ACHIEVED WITHIN TOLERANCE.

 AVERAGE MOMENT                     5.810E+09   TIME AVG. MOMENT      3.532E+09
 ALL MOMENT    RESIDUALS ARE ZERO
 LARGEST INCREMENT OF ROTATION      1.360E-30   AT NODE          1   DOF  6
   INSTANCE: RIGID_PRESS-1                                                                   
 LARGEST CORRECTION TO ROTATION     1.353E-30   AT NODE          1   DOF  6
   INSTANCE: RIGID_PRESS-1                                                                   
          THE MOMENT    EQUILIBRIUM EQUATIONS HAVE CONVERGED

  NUMBER OF EQUATIONS =       694     NUMBER OF FLOATING PT. OPERATIONS =  3.80E+05

     CHECK POINT   START OF SOLVER    

     CHECK POINT  END OF SOLVER       

       ELAPSED USER TIME (SEC)      =   0.0000    
       ELAPSED SYSTEM TIME (SEC)    =   0.0000    
       ELAPSED TOTAL CPU TIME (SEC) =   0.0000    
       ELAPSED WALLCLOCK TIME (SEC) =          0

               CONVERGENCE CHECKS FOR EQUILIBRIUM ITERATION     4

   MAX. PENETRATION ERROR -1.76125E-09 AT NODE PLATE-1.124 OF CONTACT PAIR 
   (ASSEMBLY_S_SURF-1,ASSEMBLY_RIGID_PRESS-1_SURF-3)
   MAX. CONTACT FORCE ERROR -294.035E-06   AT NODE PLATE-1.124 OF CONTACT PAIR 
   (ASSEMBLY_S_SURF-1,ASSEMBLY_RIGID_PRESS-1_SURF-3)
          THE CONTACT CONSTRAINTS HAVE CONVERGED.

 AVERAGE FORCE                      5.305E+06   TIME AVG. FORCE       3.846E+06
 LARGEST RESIDUAL FORCE            -2.123E+04   AT NODE        130   DOF  2
   INSTANCE: PLATE-1                                                                         
 LARGEST INCREMENT OF DISP.        -7.807E-04   AT NODE        142   DOF  1
   INSTANCE: PLATE-1                                                                         
 LARGEST CORRECTION TO DISP.        8.674E-03   AT NODE        124   DOF  1
   INSTANCE: PLATE-1                                                                         
          FORCE     EQUILIBRIUM NOT ACHIEVED WITHIN TOLERANCE.

 AVERAGE MOMENT                     5.794E+09   TIME AVG. MOMENT      3.532E+09
 ALL MOMENT    RESIDUALS ARE ZERO
 LARGEST INCREMENT OF ROTATION      6.049E-33   AT NODE          1   DOF  6
   INSTANCE: RIGID_PRESS-1                                                                   
 LARGEST CORRECTION TO ROTATION    -1.354E-30   AT NODE          1   DOF  6
   INSTANCE: RIGID_PRESS-1                                                                   
          THE MOMENT    EQUILIBRIUM EQUATIONS HAVE CONVERGED

  NUMBER OF EQUATIONS =       694     NUMBER OF FLOATING PT. OPERATIONS =  3.80E+05

     CHECK POINT   START OF SOLVER    

     CHECK POINT  END OF SOLVER       

       ELAPSED USER TIME (SEC)      =  1.00000E-02
       ELAPSED SYSTEM TIME (SEC)    =   0.0000    
       ELAPSED TOTAL CPU TIME (SEC) =  1.00000E-02
       ELAPSED WALLCLOCK TIME (SEC) =          0
 

 ***WARNING: THE SYSTEM MATRIX HAS 2 NEGATIVE EIGENVALUES.
             EXPLANATIONS ARE SUGGESTED AFTER THE FIRST OCCURRENCE OF THIS MESSAGE.

               CONVERGENCE CHECKS FOR EQUILIBRIUM ITERATION     5

   MAX. PENETRATION ERROR -292.333E-09   AT NODE PLATE-1.124 OF CONTACT PAIR 
   (ASSEMBLY_S_SURF-1,ASSEMBLY_RIGID_PRESS-1_SURF-3)
   MAX. CONTACT FORCE ERROR -48.8027E-03  AT NODE PLATE-1.124 OF CONTACT PAIR 
   (ASSEMBLY_S_SURF-1,ASSEMBLY_RIGID_PRESS-1_SURF-3)
          THE CONTACT CONSTRAINTS HAVE CONVERGED.

 AVERAGE FORCE                      5.340E+06   TIME AVG. FORCE       3.847E+06
 LARGEST RESIDUAL FORCE            -1.739E+05   AT NODE        125   DOF  2
   INSTANCE: PLATE-1                                                                         
 LARGEST INCREMENT OF DISP.        -7.944E-03   AT NODE        124   DOF  1
   INSTANCE: PLATE-1                                                                         
 LARGEST CORRECTION TO DISP.       -8.583E-03   AT NODE        124   DOF  1
   INSTANCE: PLATE-1                                                                         
          FORCE     EQUILIBRIUM NOT ACHIEVED WITHIN TOLERANCE.

 AVERAGE MOMENT                     5.810E+09   TIME AVG. MOMENT      3.532E+09
 ALL MOMENT    RESIDUALS ARE ZERO
 LARGEST INCREMENT OF ROTATION      1.312E-30   AT NODE          1   DOF  6
   INSTANCE: RIGID_PRESS-1                                                                   
 LARGEST CORRECTION TO ROTATION     1.306E-30   AT NODE          1   DOF  6
   INSTANCE: RIGID_PRESS-1                                                                   
          THE MOMENT    EQUILIBRIUM EQUATIONS HAVE CONVERGED

  NUMBER OF EQUATIONS =       694     NUMBER OF FLOATING PT. OPERATIONS =  3.80E+05

     CHECK POINT   START OF SOLVER    

     CHECK POINT  END OF SOLVER       

       ELAPSED USER TIME (SEC)      =  1.00000E-02
       ELAPSED SYSTEM TIME (SEC)    =  1.00000E-02
       ELAPSED TOTAL CPU TIME (SEC) =  2.00000E-02
       ELAPSED WALLCLOCK TIME (SEC) =          0

               CONVERGENCE CHECKS FOR EQUILIBRIUM ITERATION     6

   MAX. PENETRATION ERROR -1.68798E-09 AT NODE PLATE-1.124 OF CONTACT PAIR 
   (ASSEMBLY_S_SURF-1,ASSEMBLY_RIGID_PRESS-1_SURF-3)
   MAX. CONTACT FORCE ERROR -281.803E-06   AT NODE PLATE-1.124 OF CONTACT PAIR 
   (ASSEMBLY_S_SURF-1,ASSEMBLY_RIGID_PRESS-1_SURF-3)
          THE CONTACT CONSTRAINTS HAVE CONVERGED.

 AVERAGE FORCE                      5.305E+06   TIME AVG. FORCE       3.846E+06
 LARGEST RESIDUAL FORCE            -2.127E+04   AT NODE        130   DOF  2
   INSTANCE: PLATE-1                                                                         
 LARGEST INCREMENT OF DISP.        -7.799E-04   AT NODE        142   DOF  1
   INSTANCE: PLATE-1                                                                         
 LARGEST CORRECTION TO DISP.        8.581E-03   AT NODE        124   DOF  1
   INSTANCE: PLATE-1                                                                         
          FORCE     EQUILIBRIUM NOT ACHIEVED WITHIN TOLERANCE.

 AVERAGE MOMENT                     5.794E+09   TIME AVG. MOMENT      3.532E+09
 ALL MOMENT    RESIDUALS ARE ZERO
 LARGEST INCREMENT OF ROTATION      3.843E-33   AT NODE          1   DOF  6
   INSTANCE: RIGID_PRESS-1                                                                   
 LARGEST CORRECTION TO ROTATION    -1.308E-30   AT NODE          1   DOF  6
   INSTANCE: RIGID_PRESS-1                                                                   
          THE MOMENT    EQUILIBRIUM EQUATIONS HAVE CONVERGED

  NUMBER OF EQUATIONS =       694     NUMBER OF FLOATING PT. OPERATIONS =  3.80E+05

     CHECK POINT   START OF SOLVER    

     CHECK POINT  END OF SOLVER       

       ELAPSED USER TIME (SEC)      =  1.00000E-02
       ELAPSED SYSTEM TIME (SEC)    =   0.0000    
       ELAPSED TOTAL CPU TIME (SEC) =  1.00000E-02
       ELAPSED WALLCLOCK TIME (SEC) =          0
 

 ***WARNING: THE SYSTEM MATRIX HAS 2 NEGATIVE EIGENVALUES.
             EXPLANATIONS ARE SUGGESTED AFTER THE FIRST OCCURRENCE OF THIS MESSAGE.

               CONVERGENCE CHECKS FOR EQUILIBRIUM ITERATION     7

   MAX. PENETRATION ERROR -288.183E-09   AT NODE PLATE-1.124 OF CONTACT PAIR 
   (ASSEMBLY_S_SURF-1,ASSEMBLY_RIGID_PRESS-1_SURF-3)
   MAX. CONTACT FORCE ERROR -48.1098E-03  AT NODE PLATE-1.124 OF CONTACT PAIR 
   (ASSEMBLY_S_SURF-1,ASSEMBLY_RIGID_PRESS-1_SURF-3)
          THE CONTACT CONSTRAINTS HAVE CONVERGED.

 AVERAGE FORCE                      5.328E+06   TIME AVG. FORCE       3.847E+06
 LARGEST RESIDUAL FORCE            -1.746E+05   AT NODE        125   DOF  2
   INSTANCE: PLATE-1                                                                         
 LARGEST INCREMENT OF DISP.        -8.004E-03   AT NODE        124   DOF  1
   INSTANCE: PLATE-1                                                                         
 LARGEST CORRECTION TO DISP.       -8.641E-03   AT NODE        124   DOF  1
   INSTANCE: PLATE-1                                                                         
          FORCE     EQUILIBRIUM NOT ACHIEVED WITHIN TOLERANCE.

 AVERAGE MOMENT                     5.810E+09   TIME AVG. MOMENT      3.532E+09
 ALL MOMENT    RESIDUALS ARE ZERO
 LARGEST INCREMENT OF ROTATION      1.355E-30   AT NODE          1   DOF  6
   INSTANCE: RIGID_PRESS-1                                                                   
 LARGEST CORRECTION TO ROTATION     1.352E-30   AT NODE          1   DOF  6
   INSTANCE: RIGID_PRESS-1                                                                   
          THE MOMENT    EQUILIBRIUM EQUATIONS HAVE CONVERGED
 

 ***NOTE: THE SOLUTION APPEARS TO BE DIVERGING. CONVERGENCE IS JUDGED UNLIKELY.
 

 ***ERROR: TIME INCREMENT REQUIRED IS LESS THAN THE MINIMUM SPECIFIED

 ***ERROR: THE ANALYSIS HAS BEEN TERMINATED DUE TO PREVIOUS ERRORS. ALL OUTPUT 
           REQUESTS HAVE BEEN WRITTEN FOR THE LAST CONVERGED INCREMENT.



     ANALYSIS SUMMARY:
     TOTAL OF         35  INCREMENTS
                      19  CUTBACKS IN AUTOMATIC INCREMENTATION
                     161  ITERATIONS INCLUDING CONTACT ITERATIONS IF PRESENT
                     161  PASSES THROUGH THE EQUATION SOLVER OF WHICH 
                     161  INVOLVE MATRIX DECOMPOSITION, INCLUDING
                       0  DECOMPOSITION(S) OF THE MASS MATRIX
                       1  REORDERING OF EQUATIONS TO MINIMIZE WAVEFRONT
                       0  ADDITIONAL RESIDUAL EVALUATIONS FOR LINE SEARCHES
                       0  ADDITIONAL OPERATOR EVALUATIONS FOR LINE SEARCHES
                       1  WARNING MESSAGES DURING USER INPUT PROCESSING
                     102  WARNING MESSAGES DURING ANALYSIS
                       0  ANALYSIS WARNINGS ARE NUMERICAL PROBLEM MESSAGES
                      59  ANALYSIS WARNINGS ARE NEGATIVE EIGENVALUE MESSAGES
                       2  ERROR MESSAGES



     JOB TIME SUMMARY
       USER TIME (SEC)      =   7.4500    
       SYSTEM TIME (SEC)    =  0.62000    
       TOTAL CPU TIME (SEC) =   8.0700    
       WALLCLOCK TIME (SEC) =          8
