1

   Abaqus 3DEXPERIENCE R2016x                                  Date 30-Apr-2018   Time 23:23:21
   For use at UNIVERSITAET BERN under license from Dassault Systemes or its subsidiary.

                                                                                 
                                                                                 
 STEP    1     INCREMENT     1     STEP TIME    0.00    


                        S T E P       1     S T A T I C   A N A L Y S I S


                                                                                          

     AUTOMATIC TIME CONTROL WITH -
          A SUGGESTED INITIAL TIME INCREMENT OF                0.100    
          AND A TOTAL TIME PERIOD OF                           0.100    
          THE MINIMUM TIME INCREMENT ALLOWED IS                1.000E-06
          THE MAXIMUM TIME INCREMENT ALLOWED IS                0.100    

     LINEAR EQUATION SOLVER TYPE         DIRECT SPARSE

 CONVERGENCE TOLERANCE PARAMETERS FOR FORCE    
     CRITERION FOR RESIDUAL FORCE     FOR A NONLINEAR PROBLEM          5.000E-03
     CRITERION FOR DISP.    CORRECTION IN A NONLINEAR PROBLEM          1.000E-02
     INITIAL VALUE OF TIME AVERAGE FORCE                               1.000E-02
     AVERAGE FORCE     IS TIME AVERAGE FORCE    
     ALTERNATE CRIT. FOR RESIDUAL FORCE     FOR A NONLINEAR PROBLEM    2.000E-02
     CRITERION FOR ZERO FORCE     RELATIVE TO TIME AVRG. FORCE         1.000E-05
     CRITERION FOR RESIDUAL FORCE     WHEN THERE IS ZERO FLUX          1.000E-05
     CRITERION FOR DISP.    CORRECTION WHEN THERE IS ZERO FLUX         1.000E-03
     CRITERION FOR RESIDUAL FORCE     FOR A LINEAR INCREMENT           1.000E-08
     FIELD CONVERSION RATIO                                             1.00    
     CRITERION FOR ZERO FORCE     REL. TO TIME AVRG. MAX. FORCE        1.000E-05
     CRITERION FOR ZERO DISP.    RELATIVE TO CHARACTERISTIC LENGTH     1.000E-08

 CONVERGENCE TOLERANCE PARAMETERS FOR MOMENT   
     CRITERION FOR RESIDUAL MOMENT    FOR A NONLINEAR PROBLEM          5.000E-03
     CRITERION FOR ROTATION CORRECTION IN A NONLINEAR PROBLEM          1.000E-02
     INITIAL VALUE OF TIME AVERAGE MOMENT                              1.000E-02
     AVERAGE MOMENT    IS TIME AVERAGE MOMENT   
     ALTERNATE CRIT. FOR RESIDUAL MOMENT    FOR A NONLINEAR PROBLEM    2.000E-02
     CRITERION FOR ZERO MOMENT    RELATIVE TO TIME AVRG. MOMENT        1.000E-05
     CRITERION FOR RESIDUAL MOMENT    WHEN THERE IS ZERO FLUX          1.000E-05
     CRITERION FOR ROTATION CORRECTION WHEN THERE IS ZERO FLUX         1.000E-03
     CRITERION FOR RESIDUAL MOMENT    FOR A LINEAR INCREMENT           1.000E-08
     FIELD CONVERSION RATIO                                             1.00    
     CRITERION FOR ZERO MOMENT    REL. TO TIME AVRG. MAX. MOMENT       1.000E-05

     VOLUMETRIC STRAIN COMPATIBILITY TOLERANCE FOR HYBRID SOLIDS       1.000E-05
     AXIAL STRAIN COMPATIBILITY TOLERANCE FOR HYBRID BEAMS             1.000E-05
     TRANS. SHEAR STRAIN COMPATIBILITY TOLERANCE FOR HYBRID BEAMS      1.000E-05
     SOFT CONTACT CONSTRAINT COMPATIBILITY TOLERANCE FOR P>P0          5.000E-03
     SOFT CONTACT CONSTRAINT COMPATIBILITY TOLERANCE FOR P=0.0         0.100    
     CONTACT FORCE ERROR TOLERANCE FOR CONVERT SDI=YES                 1.00    
     DISPLACEMENT COMPATIBILITY TOLERANCE FOR DCOUP ELEMENTS           1.000E-05
     ROTATION COMPATIBILITY TOLERANCE FOR DCOUP ELEMENTS               1.000E-05

 EQUILIBRIUM WILL BE CHECKED FOR SEVERE DISCONTINUITY ITERATIONS

 TIME INCREMENTATION CONTROL PARAMETERS:
     FIRST EQUILIBRIUM ITERATION FOR CONSECUTIVE DIVERGENCE CHECK              4
     EQUILIBRIUM ITERATION AT WHICH LOG. CONVERGENCE RATE CHECK BEGINS         8
     EQUILIBRIUM ITERATION AFTER WHICH ALTERNATE RESIDUAL IS USED              9
     MAXIMUM EQUILIBRIUM ITERATIONS ALLOWED                                   16
     EQUILIBRIUM ITERATION COUNT FOR CUT-BACK IN NEXT INCREMENT               10
     MAXIMUM EQUILIB. ITERS IN TWO INCREMENTS FOR TIME INCREMENT INCREASE      4
     MAXIMUM ITERATIONS FOR SEVERE DISCONTINUITIES                            50
     MAXIMUM CUT-BACKS ALLOWED IN AN INCREMENT                                 5
     MAXIMUM DISCON. ITERS IN TWO INCREMENTS FOR TIME INCREMENT INCREASE      50
     MAXIMUM CONTACT AUGMENTATIONS FOR *SURFACE BEHAVIOR,AUGMENTED LAGRANGE   50
     CUT-BACK FACTOR AFTER DIVERGENCE                                 0.2500    
     CUT-BACK FACTOR FOR TOO SLOW CONVERGENCE                         0.5000    
     CUT-BACK FACTOR AFTER TOO MANY EQUILIBRIUM ITERATIONS            0.7500    
     CUT-BACK FACTOR AFTER TOO MANY SEVERE DISCONTINUITY ITERATIONS   0.2500    
     CUT-BACK FACTOR AFTER PROBLEMS IN ELEMENT ASSEMBLY               0.2500    
     INCREASE FACTOR AFTER TWO INCREMENTS THAT CONVERGE QUICKLY        1.500    
     MAX. TIME INCREMENT INCREASE FACTOR ALLOWED                       1.500    
     MAX. TIME INCREMENT INCREASE FACTOR ALLOWED (DYNAMICS)            1.250    
     MAX. TIME INCREMENT INCREASE FACTOR ALLOWED (DIFFUSION)           2.000    
     MINIMUM TIME INCREMENT RATIO FOR EXTRAPOLATION TO OCCUR          0.1000    
     MAX. RATIO OF TIME INCREMENT TO STABILITY LIMIT                   1.000    
     FRACTION OF STABILITY LIMIT FOR NEW TIME INCREMENT               0.9500    
     TIME INCREMENT INCREASE FACTOR BEFORE A TIME POINT                1.000    

 CONTACT CONTROLS APPLIED TO ALL CONTACT PAIRS:
     GLOBAL STABILIZATION CONTROL IS NOT USED
     RELATIVE PENETRATION TOLERANCE FOR AUGMENTED LAGRANGE CONTACT:
          FINITE-SLIDING SURFACE-TO-SURFACE                            5.000E-02
          OTHERWISE                                                    1.000E-03

          PRINT OF INCREMENT NUMBER, TIME, ETC., EVERY    1  INCREMENTS

     THE MAXIMUM NUMBER OF INCREMENTS IN THIS STEP IS                    5000

          LARGE DISPLACEMENT THEORY WILL BE USED

     LINEAR EXTRAPOLATION WILL BE USED

     CHARACTERISTIC ELEMENT LENGTH      21.9    

     DETAILS REGARDING ACTUAL SOLUTION WAVEFRONT REQUESTED

     DETAILED OUTPUT OF DIAGNOSTICS TO DATABASE REQUESTED

     PRINT OF INCREMENT NUMBER, TIME, ETC., TO THE MESSAGE FILE EVERY     1  INCREMENTS

     COLLECTING MODEL CONSTRAINT INFORMATION FOR OVERCONSTRAINT CHECKS

     COLLECTING STEP CONSTRAINT INFORMATION FOR OVERCONSTRAINT CHECKS


  INCREMENT     1 STARTS. ATTEMPT NUMBER  1, TIME INCREMENT  0.100    

  NUMBER OF EQUATIONS =       687     NUMBER OF FLOATING PT. OPERATIONS =  3.19E+05

     CHECK POINT   START OF SOLVER    

     CHECK POINT  END OF SOLVER       

       ELAPSED USER TIME (SEC)      =  2.00000E-02
       ELAPSED SYSTEM TIME (SEC)    =  2.00000E-02
       ELAPSED TOTAL CPU TIME (SEC) =  4.00000E-02
       ELAPSED WALLCLOCK TIME (SEC) =          0

                    2 SEVERE DISCONTINUITIES OCCURRED DURING THIS ITERATION.
                    2 POINTS CHANGED FROM OPEN TO CLOSED

               CONVERGENCE CHECKS FOR SEVERE DISCONTINUITY ITERATION     1

   MAX. PENETRATION ERROR 21.3001      AT NODE PLATE-1.15 OF CONTACT PAIR 
   (ASSEMBLY_S_SURF-1,ASSEMBLY_RIGID_PRESS-1_SURF-3)
   MAX. CONTACT FORCE ERROR 1.81339E+06 AT NODE PLATE-1.15 OF CONTACT PAIR 
   (ASSEMBLY_S_SURF-1,ASSEMBLY_RIGID_PRESS-1_SURF-3)
          PENETRATION ERROR TOO LARGE COMPARED TO DISPLACEMENT INCREMENT.

 AVERAGE FORCE                      1.116E+06   TIME AVG. FORCE       1.116E+06
 LARGEST RESIDUAL FORCE            -6.215E+06   AT NODE          2   DOF  2
   INSTANCE: PLATE-1                                                                         
 LARGEST INCREMENT OF DISP.         -25.0       AT NODE          1   DOF  2
   INSTANCE: RIGID_PRESS-1                                                                   
 LARGEST CORRECTION TO DISP.        -25.0       AT NODE          1   DOF  2
   INSTANCE: RIGID_PRESS-1                                                                   
          FORCE     EQUILIBRIUM NOT ACHIEVED WITHIN TOLERANCE.

 AVERAGE MOMENT                     1.376E+09   TIME AVG. MOMENT      1.376E+09
 ALL MOMENT    RESIDUALS ARE ZERO
 LARGEST INCREMENT OF ROTATION      4.760E-34   AT NODE          1   DOF  6
   INSTANCE: RIGID_PRESS-1                                                                   
 LARGEST CORRECTION TO ROTATION     4.760E-34   AT NODE          1   DOF  6
   INSTANCE: RIGID_PRESS-1                                                                   
          THE MOMENT    EQUILIBRIUM EQUATIONS HAVE CONVERGED

  NUMBER OF EQUATIONS =       687     NUMBER OF FLOATING PT. OPERATIONS =  3.81E+05

     CHECK POINT   START OF SOLVER    

     CHECK POINT  END OF SOLVER       

       ELAPSED USER TIME (SEC)      =   0.0000    
       ELAPSED SYSTEM TIME (SEC)    =  1.00000E-02
       ELAPSED TOTAL CPU TIME (SEC) =  1.00000E-02
       ELAPSED WALLCLOCK TIME (SEC) =          0

               CONVERGENCE CHECKS FOR EQUILIBRIUM ITERATION     1

   MAX. PENETRATION ERROR 48.2763E-03  AT NODE PLATE-1.15 OF CONTACT PAIR 
   (ASSEMBLY_S_SURF-1,ASSEMBLY_RIGID_PRESS-1_SURF-3)
   MAX. CONTACT FORCE ERROR 3.54309E+03 AT NODE PLATE-1.15 OF CONTACT PAIR 
   (ASSEMBLY_S_SURF-1,ASSEMBLY_RIGID_PRESS-1_SURF-3)
          THE CONTACT CONSTRAINTS HAVE CONVERGED.

 AVERAGE FORCE                      1.439E+06   TIME AVG. FORCE       1.439E+06
 LARGEST RESIDUAL FORCE            -3.751E+06   AT NODE         15   DOF  2
   INSTANCE: PLATE-1                                                                         
 LARGEST INCREMENT OF DISP.         -25.0       AT NODE          1   DOF  2
   INSTANCE: RIGID_PRESS-1                                                                   
 LARGEST CORRECTION TO DISP.         1.86       AT NODE         74   DOF  1
   INSTANCE: PLATE-1                                                                         
          FORCE     EQUILIBRIUM NOT ACHIEVED WITHIN TOLERANCE.

 AVERAGE MOMENT                     1.794E+09   TIME AVG. MOMENT      1.794E+09
 ALL MOMENT    RESIDUALS ARE ZERO
 LARGEST INCREMENT OF ROTATION     -9.413E-35   AT NODE          1   DOF  6
   INSTANCE: RIGID_PRESS-1                                                                   
 LARGEST CORRECTION TO ROTATION    -5.701E-34   AT NODE          1   DOF  6
   INSTANCE: RIGID_PRESS-1                                                                   
          THE MOMENT    EQUILIBRIUM RESPONSE WAS LINEAR IN THIS INCREMENT

  NUMBER OF EQUATIONS =       687     NUMBER OF FLOATING PT. OPERATIONS =  3.81E+05

     CHECK POINT   START OF SOLVER    

     CHECK POINT  END OF SOLVER       

       ELAPSED USER TIME (SEC)      =  1.00000E-02
       ELAPSED SYSTEM TIME (SEC)    =  1.00000E-02
       ELAPSED TOTAL CPU TIME (SEC) =  2.00000E-02
       ELAPSED WALLCLOCK TIME (SEC) =          0

 ***WARNING: THE STRAIN INCREMENT HAS EXCEEDED FIFTY TIMES THE STRAIN TO CAUSE 
             FIRST YIELD AT 168 POINTS

               CONVERGENCE CHECKS FOR EQUILIBRIUM ITERATION     2

   MAX. PENETRATION ERROR 87.6774E-03  AT NODE PLATE-1.14 OF CONTACT PAIR 
   (ASSEMBLY_S_SURF-1,ASSEMBLY_RIGID_PRESS-1_SURF-3)
   MAX. CONTACT FORCE ERROR 8.86185E+03 AT NODE PLATE-1.123 OF CONTACT PAIR 
   (ASSEMBLY_S_SURF-1,ASSEMBLY_RIGID_PRESS-1_SURF-3)
          THE CONTACT CONSTRAINTS HAVE CONVERGED.

 AVERAGE FORCE                      1.569E+06   TIME AVG. FORCE       1.569E+06
 LARGEST RESIDUAL FORCE             4.779E+06   AT NODE          2   DOF  2
   INSTANCE: PLATE-1                                                                         
 LARGEST INCREMENT OF DISP.         -25.0       AT NODE          1   DOF  2
   INSTANCE: RIGID_PRESS-1                                                                   
 LARGEST CORRECTION TO DISP.        -5.03       AT NODE         64   DOF  1
   INSTANCE: PLATE-1                                                                         
          FORCE     EQUILIBRIUM NOT ACHIEVED WITHIN TOLERANCE.

 AVERAGE MOMENT                     1.637E+09   TIME AVG. MOMENT      1.637E+09
 ALL MOMENT    RESIDUALS ARE ZERO
 LARGEST INCREMENT OF ROTATION     -5.420E-34   AT NODE          1   DOF  6
   INSTANCE: RIGID_PRESS-1                                                                   
 LARGEST CORRECTION TO ROTATION    -4.478E-34   AT NODE          1   DOF  6
   INSTANCE: RIGID_PRESS-1                                                                   
          THE MOMENT    EQUILIBRIUM EQUATIONS HAVE CONVERGED

  NUMBER OF EQUATIONS =       687     NUMBER OF FLOATING PT. OPERATIONS =  3.81E+05

     CHECK POINT   START OF SOLVER    

     CHECK POINT  END OF SOLVER       

       ELAPSED USER TIME (SEC)      =  1.00000E-02
       ELAPSED SYSTEM TIME (SEC)    =   0.0000    
       ELAPSED TOTAL CPU TIME (SEC) =  1.00000E-02
       ELAPSED WALLCLOCK TIME (SEC) =          0

 ***WARNING: THE STRAIN INCREMENT HAS EXCEEDED FIFTY TIMES THE STRAIN TO CAUSE 
             FIRST YIELD AT 174 POINTS

               CONVERGENCE CHECKS FOR EQUILIBRIUM ITERATION     3

   MAX. PENETRATION ERROR 141.527E-03   AT NODE PLATE-1.123 OF CONTACT PAIR 
   (ASSEMBLY_S_SURF-1,ASSEMBLY_RIGID_PRESS-1_SURF-3)
   MAX. CONTACT FORCE ERROR 14.6231E+03  AT NODE PLATE-1.123 OF CONTACT PAIR 
   (ASSEMBLY_S_SURF-1,ASSEMBLY_RIGID_PRESS-1_SURF-3)
          PENETRATION ERROR TOO LARGE COMPARED TO DISPLACEMENT INCREMENT.

 AVERAGE FORCE                      1.366E+06   TIME AVG. FORCE       1.366E+06
 LARGEST RESIDUAL FORCE            -4.418E+06   AT NODE         15   DOF  2
   INSTANCE: PLATE-1                                                                         
 LARGEST INCREMENT OF DISP.         -25.0       AT NODE          1   DOF  2
   INSTANCE: RIGID_PRESS-1                                                                   
 LARGEST CORRECTION TO DISP.         3.05       AT NODE        122   DOF  1
   INSTANCE: PLATE-1                                                                         
          FORCE     EQUILIBRIUM NOT ACHIEVED WITHIN TOLERANCE.

 AVERAGE MOMENT                     1.567E+09   TIME AVG. MOMENT      1.567E+09
 ALL MOMENT    RESIDUALS ARE ZERO
 LARGEST INCREMENT OF ROTATION      3.273E-33   AT NODE          1   DOF  6
   INSTANCE: RIGID_PRESS-1                                                                   
 LARGEST CORRECTION TO ROTATION     3.815E-33   AT NODE          1   DOF  6
   INSTANCE: RIGID_PRESS-1                                                                   
          THE MOMENT    EQUILIBRIUM EQUATIONS HAVE CONVERGED

  NUMBER OF EQUATIONS =       687     NUMBER OF FLOATING PT. OPERATIONS =  3.81E+05

     CHECK POINT   START OF SOLVER    

     CHECK POINT  END OF SOLVER       

       ELAPSED USER TIME (SEC)      =  2.00000E-02
       ELAPSED SYSTEM TIME (SEC)    =  6.00000E-02
       ELAPSED TOTAL CPU TIME (SEC) =  8.00000E-02
       ELAPSED WALLCLOCK TIME (SEC) =          0

 ***WARNING: THE STRAIN INCREMENT HAS EXCEEDED FIFTY TIMES THE STRAIN TO CAUSE 
             FIRST YIELD AT 172 POINTS

               CONVERGENCE CHECKS FOR EQUILIBRIUM ITERATION     4

   MAX. PENETRATION ERROR -60.5154E-03  AT NODE PLATE-1.122 OF CONTACT PAIR 
   (ASSEMBLY_S_SURF-1,ASSEMBLY_RIGID_PRESS-1_SURF-3)
   MAX. CONTACT FORCE ERROR -3.08994E+03 AT NODE PLATE-1.122 OF CONTACT PAIR 
   (ASSEMBLY_S_SURF-1,ASSEMBLY_RIGID_PRESS-1_SURF-3)
          THE CONTACT CONSTRAINTS HAVE CONVERGED.

 AVERAGE FORCE                      1.335E+06   TIME AVG. FORCE       1.335E+06
 LARGEST RESIDUAL FORCE            -1.990E+06   AT NODE        146   DOF  2
   INSTANCE: PLATE-1                                                                         
 LARGEST INCREMENT OF DISP.         -25.0       AT NODE          1   DOF  2
   INSTANCE: RIGID_PRESS-1                                                                   
 LARGEST CORRECTION TO DISP.       -0.663       AT NODE         11   DOF  2
   INSTANCE: PLATE-1                                                                         
          FORCE     EQUILIBRIUM NOT ACHIEVED WITHIN TOLERANCE.

 AVERAGE MOMENT                     1.643E+09   TIME AVG. MOMENT      1.643E+09
 ALL MOMENT    RESIDUALS ARE ZERO
 LARGEST INCREMENT OF ROTATION     -1.657E-33   AT NODE          1   DOF  6
   INSTANCE: RIGID_PRESS-1                                                                   
 LARGEST CORRECTION TO ROTATION    -4.930E-33   AT NODE          1   DOF  6
   INSTANCE: RIGID_PRESS-1                                                                   
          THE MOMENT    EQUILIBRIUM EQUATIONS HAVE CONVERGED

  NUMBER OF EQUATIONS =       687     NUMBER OF FLOATING PT. OPERATIONS =  3.81E+05

     CHECK POINT   START OF SOLVER    

     CHECK POINT  END OF SOLVER       

       ELAPSED USER TIME (SEC)      =  1.00000E-02
       ELAPSED SYSTEM TIME (SEC)    =   0.0000    
       ELAPSED TOTAL CPU TIME (SEC) =  1.00000E-02
       ELAPSED WALLCLOCK TIME (SEC) =          0

 ***WARNING: THE STRAIN INCREMENT HAS EXCEEDED FIFTY TIMES THE STRAIN TO CAUSE 
             FIRST YIELD AT 176 POINTS

               CONVERGENCE CHECKS FOR EQUILIBRIUM ITERATION     5

   MAX. PENETRATION ERROR 128.931E-03   AT NODE PLATE-1.15 OF CONTACT PAIR 
   (ASSEMBLY_S_SURF-1,ASSEMBLY_RIGID_PRESS-1_SURF-3)
   MAX. CONTACT FORCE ERROR 9.01054E+03 AT NODE PLATE-1.126 OF CONTACT PAIR 
   (ASSEMBLY_S_SURF-1,ASSEMBLY_RIGID_PRESS-1_SURF-3)
          PENETRATION ERROR TOO LARGE COMPARED TO DISPLACEMENT INCREMENT.

 AVERAGE FORCE                      1.381E+06   TIME AVG. FORCE       1.381E+06
 LARGEST RESIDUAL FORCE             4.025E+06   AT NODE          2   DOF  2
   INSTANCE: PLATE-1                                                                         
 LARGEST INCREMENT OF DISP.         -25.0       AT NODE          1   DOF  2
   INSTANCE: RIGID_PRESS-1                                                                   
 LARGEST CORRECTION TO DISP.         1.93       AT NODE        126   DOF  2
   INSTANCE: PLATE-1                                                                         
          FORCE     EQUILIBRIUM NOT ACHIEVED WITHIN TOLERANCE.

 AVERAGE MOMENT                     1.549E+09   TIME AVG. MOMENT      1.549E+09
 ALL MOMENT    RESIDUALS ARE ZERO
 LARGEST INCREMENT OF ROTATION      5.659E-34   AT NODE          1   DOF  6
   INSTANCE: RIGID_PRESS-1                                                                   
 LARGEST CORRECTION TO ROTATION     2.223E-33   AT NODE          1   DOF  6
   INSTANCE: RIGID_PRESS-1                                                                   
          THE MOMENT    EQUILIBRIUM EQUATIONS HAVE CONVERGED

  NUMBER OF EQUATIONS =       687     NUMBER OF FLOATING PT. OPERATIONS =  3.81E+05

     CHECK POINT   START OF SOLVER    

     CHECK POINT  END OF SOLVER       

       ELAPSED USER TIME (SEC)      =  1.00000E-02
       ELAPSED SYSTEM TIME (SEC)    =   0.0000    
       ELAPSED TOTAL CPU TIME (SEC) =  1.00000E-02
       ELAPSED WALLCLOCK TIME (SEC) =          0

 ***WARNING: THE STRAIN INCREMENT HAS EXCEEDED FIFTY TIMES THE STRAIN TO CAUSE 
             FIRST YIELD AT 158 POINTS

               CONVERGENCE CHECKS FOR EQUILIBRIUM ITERATION     6

   MAX. PENETRATION ERROR 270.410E-03   AT NODE PLATE-1.2 OF CONTACT PAIR 
   (ASSEMBLY_S_SURF-1,ASSEMBLY_RIGID_PRESS-1_SURF-3)
   MAX. CONTACT FORCE ERROR 28.5591E+03  AT NODE PLATE-1.2 OF CONTACT PAIR 
   (ASSEMBLY_S_SURF-1,ASSEMBLY_RIGID_PRESS-1_SURF-3)
          PENETRATION ERROR TOO LARGE COMPARED TO DISPLACEMENT INCREMENT.

 AVERAGE FORCE                      1.455E+06   TIME AVG. FORCE       1.455E+06
 LARGEST RESIDUAL FORCE            -8.531E+06   AT NODE        125   DOF  2
   INSTANCE: PLATE-1                                                                         
 LARGEST INCREMENT OF DISP.         -25.0       AT NODE          1   DOF  2
   INSTANCE: RIGID_PRESS-1                                                                   
 LARGEST CORRECTION TO DISP.         4.63       AT NODE          2   DOF  2
   INSTANCE: PLATE-1                                                                         
          FORCE     EQUILIBRIUM NOT ACHIEVED WITHIN TOLERANCE.

 AVERAGE MOMENT                     1.654E+09   TIME AVG. MOMENT      1.654E+09
 ALL MOMENT    RESIDUALS ARE ZERO
 LARGEST INCREMENT OF ROTATION      9.861E-35   AT NODE          1   DOF  6
   INSTANCE: RIGID_PRESS-1                                                                   
 LARGEST CORRECTION TO ROTATION    -4.673E-34   AT NODE          1   DOF  6
   INSTANCE: RIGID_PRESS-1                                                                   
          THE MOMENT    EQUILIBRIUM EQUATIONS HAVE CONVERGED
 

 ***NOTE: THE SOLUTION APPEARS TO BE DIVERGING. CONVERGENCE IS JUDGED UNLIKELY.


  INCREMENT     1 STARTS. ATTEMPT NUMBER  2, TIME INCREMENT  2.500E-02

  NUMBER OF EQUATIONS =       687     NUMBER OF FLOATING PT. OPERATIONS =  3.81E+05

     CHECK POINT   START OF SOLVER    

     CHECK POINT  END OF SOLVER       

       ELAPSED USER TIME (SEC)      =  1.00000E-02
       ELAPSED SYSTEM TIME (SEC)    =  5.00000E-02
       ELAPSED TOTAL CPU TIME (SEC) =  6.00000E-02
       ELAPSED WALLCLOCK TIME (SEC) =          1

                    2 SEVERE DISCONTINUITIES OCCURRED DURING THIS ITERATION.
                    2 POINTS CHANGED FROM OPEN TO CLOSED

               CONVERGENCE CHECKS FOR SEVERE DISCONTINUITY ITERATION     1

   MAX. PENETRATION ERROR 5.31801     AT NODE PLATE-1.15 OF CONTACT PAIR 
   (ASSEMBLY_S_SURF-1,ASSEMBLY_RIGID_PRESS-1_SURF-3)
   MAX. CONTACT FORCE ERROR 452.145E+03   AT NODE PLATE-1.15 OF CONTACT PAIR 
   (ASSEMBLY_S_SURF-1,ASSEMBLY_RIGID_PRESS-1_SURF-3)
          PENETRATION ERROR TOO LARGE COMPARED TO DISPLACEMENT INCREMENT.

 AVERAGE FORCE                      3.227E+05   TIME AVG. FORCE       3.227E+05
 LARGEST RESIDUAL FORCE            -2.408E+04   AT NODE          2   DOF  2
   INSTANCE: PLATE-1                                                                         
 LARGEST INCREMENT OF DISP.         -6.25       AT NODE          1   DOF  2
   INSTANCE: RIGID_PRESS-1                                                                   
 LARGEST CORRECTION TO DISP.        -6.25       AT NODE          1   DOF  2
   INSTANCE: RIGID_PRESS-1                                                                   
          FORCE     EQUILIBRIUM NOT ACHIEVED WITHIN TOLERANCE.

 AVERAGE MOMENT                     3.425E+08   TIME AVG. MOMENT      3.425E+08
 ALL MOMENT    RESIDUALS ARE ZERO
 LARGEST INCREMENT OF ROTATION      1.190E-34   AT NODE          1   DOF  6
   INSTANCE: RIGID_PRESS-1                                                                   
 LARGEST CORRECTION TO ROTATION     1.190E-34   AT NODE          1   DOF  6
   INSTANCE: RIGID_PRESS-1                                                                   
          THE MOMENT    EQUILIBRIUM EQUATIONS HAVE CONVERGED

  NUMBER OF EQUATIONS =       687     NUMBER OF FLOATING PT. OPERATIONS =  3.81E+05

     CHECK POINT   START OF SOLVER    

     CHECK POINT  END OF SOLVER       

       ELAPSED USER TIME (SEC)      =   0.0000    
       ELAPSED SYSTEM TIME (SEC)    =   0.0000    
       ELAPSED TOTAL CPU TIME (SEC) =   0.0000    
       ELAPSED WALLCLOCK TIME (SEC) =          0

               CONVERGENCE CHECKS FOR EQUILIBRIUM ITERATION     1

   MAX. PENETRATION ERROR -1.53133E-03 AT NODE PLATE-1.15 OF CONTACT PAIR 
   (ASSEMBLY_S_SURF-1,ASSEMBLY_RIGID_PRESS-1_SURF-3)
   MAX. CONTACT FORCE ERROR -130.187       AT NODE PLATE-1.15 OF CONTACT PAIR 
   (ASSEMBLY_S_SURF-1,ASSEMBLY_RIGID_PRESS-1_SURF-3)
          THE CONTACT CONSTRAINTS HAVE CONVERGED.

 AVERAGE FORCE                      3.750E+05   TIME AVG. FORCE       3.750E+05
 LARGEST RESIDUAL FORCE            -1.245E+04   AT NODE        122   DOF  2
   INSTANCE: PLATE-1                                                                         
 LARGEST INCREMENT OF DISP.         -6.25       AT NODE          1   DOF  2
   INSTANCE: RIGID_PRESS-1                                                                   
 LARGEST CORRECTION TO DISP.       -5.928E-02   AT NODE         15   DOF  2
   INSTANCE: PLATE-1                                                                         
          FORCE     EQUILIBRIUM NOT ACHIEVED WITHIN TOLERANCE.

 AVERAGE MOMENT                     4.672E+08   TIME AVG. MOMENT      4.672E+08
 ALL MOMENT    RESIDUALS ARE ZERO
 LARGEST INCREMENT OF ROTATION     -1.274E-35   AT NODE          1   DOF  6
   INSTANCE: RIGID_PRESS-1                                                                   
 LARGEST CORRECTION TO ROTATION    -1.317E-34   AT NODE          1   DOF  6
   INSTANCE: RIGID_PRESS-1                                                                   
          THE MOMENT    EQUILIBRIUM RESPONSE WAS LINEAR IN THIS INCREMENT

  NUMBER OF EQUATIONS =       687     NUMBER OF FLOATING PT. OPERATIONS =  3.81E+05

     CHECK POINT   START OF SOLVER    

     CHECK POINT  END OF SOLVER       

       ELAPSED USER TIME (SEC)      =  1.00000E-02
       ELAPSED SYSTEM TIME (SEC)    =   0.0000    
       ELAPSED TOTAL CPU TIME (SEC) =  1.00000E-02
       ELAPSED WALLCLOCK TIME (SEC) =          0

               CONVERGENCE CHECKS FOR EQUILIBRIUM ITERATION     2

   MAX. PENETRATION ERROR -4.19312E-06 AT NODE PLATE-1.122 OF CONTACT PAIR 
   (ASSEMBLY_S_SURF-1,ASSEMBLY_RIGID_PRESS-1_SURF-3)
   MAX. CONTACT FORCE ERROR -356.482E-03   AT NODE PLATE-1.122 OF CONTACT PAIR 
   (ASSEMBLY_S_SURF-1,ASSEMBLY_RIGID_PRESS-1_SURF-3)
          THE CONTACT CONSTRAINTS HAVE CONVERGED.

 AVERAGE FORCE                      3.751E+05   TIME AVG. FORCE       3.751E+05
 LARGEST RESIDUAL FORCE              10.3       AT NODE        122   DOF  1
   INSTANCE: PLATE-1                                                                         
 LARGEST INCREMENT OF DISP.         -6.25       AT NODE          1   DOF  2
   INSTANCE: RIGID_PRESS-1                                                                   
 LARGEST CORRECTION TO DISP.       -1.163E-04   AT NODE        122   DOF  2
   INSTANCE: PLATE-1                                                                         
          THE FORCE     EQUILIBRIUM EQUATIONS HAVE CONVERGED

 AVERAGE MOMENT                     4.671E+08   TIME AVG. MOMENT      4.671E+08
 ALL MOMENT    RESIDUALS ARE ZERO
 LARGEST INCREMENT OF ROTATION     -9.451E-36   AT NODE          1   DOF  6
   INSTANCE: RIGID_PRESS-1                                                                   
 LARGEST CORRECTION TO ROTATION     3.290E-36   AT NODE          1   DOF  6
   INSTANCE: RIGID_PRESS-1                                                                   
          THE MOMENT    EQUILIBRIUM EQUATIONS HAVE CONVERGED

 ITERATION SUMMARY FOR THE INCREMENT:   3 TOTAL ITERATIONS, OF WHICH
   1 ARE SEVERE DISCONTINUITY ITERATIONS AND  2 ARE EQUILIBRIUM ITERATIONS.

 TIME INCREMENT COMPLETED  2.500E-02,  FRACTION OF STEP COMPLETED  0.250    
 STEP TIME COMPLETED       2.500E-02,  TOTAL TIME COMPLETED        2.500E-02


  INCREMENT     2 STARTS. ATTEMPT NUMBER  1, TIME INCREMENT  2.500E-02

  NUMBER OF EQUATIONS =       687     NUMBER OF FLOATING PT. OPERATIONS =  3.81E+05

     CHECK POINT   START OF SOLVER    

     CHECK POINT  END OF SOLVER       

       ELAPSED USER TIME (SEC)      =  1.00000E-02
       ELAPSED SYSTEM TIME (SEC)    =   0.0000    
       ELAPSED TOTAL CPU TIME (SEC) =  1.00000E-02
       ELAPSED WALLCLOCK TIME (SEC) =          0

               CONVERGENCE CHECKS FOR EQUILIBRIUM ITERATION     1

   MAX. PENETRATION ERROR -1.67331E-03 AT NODE PLATE-1.122 OF CONTACT PAIR 
   (ASSEMBLY_S_SURF-1,ASSEMBLY_RIGID_PRESS-1_SURF-3)
   MAX. CONTACT FORCE ERROR -142.325       AT NODE PLATE-1.122 OF CONTACT PAIR 
   (ASSEMBLY_S_SURF-1,ASSEMBLY_RIGID_PRESS-1_SURF-3)
          THE CONTACT CONSTRAINTS HAVE CONVERGED.

 AVERAGE FORCE                      1.373E+06   TIME AVG. FORCE       8.741E+05
 LARGEST RESIDUAL FORCE            -7.238E+04   AT NODE        245   DOF  2
   INSTANCE: PLATE-1                                                                         
 LARGEST INCREMENT OF DISP.         -6.25       AT NODE          1   DOF  2
   INSTANCE: RIGID_PRESS-1                                                                   
 LARGEST CORRECTION TO DISP.       -2.573E-02   AT NODE         64   DOF  1
   INSTANCE: PLATE-1                                                                         
          FORCE     EQUILIBRIUM NOT ACHIEVED WITHIN TOLERANCE.

 AVERAGE MOMENT                     1.029E+09   TIME AVG. MOMENT      7.481E+08
 ALL MOMENT    RESIDUALS ARE ZERO
 LARGEST INCREMENT OF ROTATION      1.849E-35   AT NODE          1   DOF  6
   INSTANCE: RIGID_PRESS-1                                                                   
 LARGEST CORRECTION TO ROTATION     2.794E-35   AT NODE          1   DOF  6
   INSTANCE: RIGID_PRESS-1                                                                   
          THE MOMENT    EQUILIBRIUM RESPONSE WAS LINEAR IN THIS INCREMENT

  NUMBER OF EQUATIONS =       687     NUMBER OF FLOATING PT. OPERATIONS =  3.81E+05

     CHECK POINT   START OF SOLVER    

     CHECK POINT  END OF SOLVER       

       ELAPSED USER TIME (SEC)      =  1.00000E-02
       ELAPSED SYSTEM TIME (SEC)    =   0.0000    
       ELAPSED TOTAL CPU TIME (SEC) =  1.00000E-02
       ELAPSED WALLCLOCK TIME (SEC) =          0

               CONVERGENCE CHECKS FOR EQUILIBRIUM ITERATION     2

   MAX. PENETRATION ERROR -172.837E-06   AT NODE PLATE-1.15 OF CONTACT PAIR 
   (ASSEMBLY_S_SURF-1,ASSEMBLY_RIGID_PRESS-1_SURF-3)
   MAX. CONTACT FORCE ERROR -14.7012      AT NODE PLATE-1.15 OF CONTACT PAIR 
   (ASSEMBLY_S_SURF-1,ASSEMBLY_RIGID_PRESS-1_SURF-3)
          THE CONTACT CONSTRAINTS HAVE CONVERGED.

 AVERAGE FORCE                      1.377E+06   TIME AVG. FORCE       8.759E+05
 LARGEST RESIDUAL FORCE            -2.766E+03   AT NODE        133   DOF  2
   INSTANCE: PLATE-1                                                                         
 LARGEST INCREMENT OF DISP.         -6.25       AT NODE          1   DOF  2
   INSTANCE: RIGID_PRESS-1                                                                   
 LARGEST CORRECTION TO DISP.       -3.362E-03   AT NODE         64   DOF  1
   INSTANCE: PLATE-1                                                                         
          THE FORCE     EQUILIBRIUM EQUATIONS HAVE CONVERGED

 AVERAGE MOMENT                     1.029E+09   TIME AVG. MOMENT      7.480E+08
 ALL MOMENT    RESIDUALS ARE ZERO
 LARGEST INCREMENT OF ROTATION      2.638E-35   AT NODE          1   DOF  6
   INSTANCE: RIGID_PRESS-1                                                                   
 LARGEST CORRECTION TO ROTATION     7.890E-36   AT NODE          1   DOF  6
   INSTANCE: RIGID_PRESS-1                                                                   
          THE MOMENT    EQUILIBRIUM EQUATIONS HAVE CONVERGED
          TIME INCREMENT MAY NOW INCREASE TO    3.750E-02

 ITERATION SUMMARY FOR THE INCREMENT:   2 TOTAL ITERATIONS, OF WHICH
   0 ARE SEVERE DISCONTINUITY ITERATIONS AND  2 ARE EQUILIBRIUM ITERATIONS.

 TIME INCREMENT COMPLETED  2.500E-02,  FRACTION OF STEP COMPLETED  0.500    
 STEP TIME COMPLETED       5.000E-02,  TOTAL TIME COMPLETED        5.000E-02


  INCREMENT     3 STARTS. ATTEMPT NUMBER  1, TIME INCREMENT  3.750E-02

  NUMBER OF EQUATIONS =       687     NUMBER OF FLOATING PT. OPERATIONS =  3.81E+05

     CHECK POINT   START OF SOLVER    

     CHECK POINT  END OF SOLVER       

       ELAPSED USER TIME (SEC)      =  1.00000E-02
       ELAPSED SYSTEM TIME (SEC)    =   0.0000    
       ELAPSED TOTAL CPU TIME (SEC) =  1.00000E-02
       ELAPSED WALLCLOCK TIME (SEC) =          0

               CONVERGENCE CHECKS FOR EQUILIBRIUM ITERATION     1

   MAX. PENETRATION ERROR 58.6845E-03  AT NODE PLATE-1.15 OF CONTACT PAIR 
   (ASSEMBLY_S_SURF-1,ASSEMBLY_RIGID_PRESS-1_SURF-3)
   MAX. CONTACT FORCE ERROR 4.30945E+03 AT NODE PLATE-1.15 OF CONTACT PAIR 
   (ASSEMBLY_S_SURF-1,ASSEMBLY_RIGID_PRESS-1_SURF-3)
          PENETRATION ERROR TOO LARGE COMPARED TO DISPLACEMENT INCREMENT.

 AVERAGE FORCE                      2.295E+06   TIME AVG. FORCE       1.349E+06
 LARGEST RESIDUAL FORCE             1.322E+06   AT NODE        251   DOF  2
   INSTANCE: PLATE-1                                                                         
 LARGEST INCREMENT OF DISP.         -9.38       AT NODE          1   DOF  2
   INSTANCE: RIGID_PRESS-1                                                                   
 LARGEST CORRECTION TO DISP.        -1.49       AT NODE         64   DOF  1
   INSTANCE: PLATE-1                                                                         
          FORCE     EQUILIBRIUM NOT ACHIEVED WITHIN TOLERANCE.

 AVERAGE MOMENT                     1.713E+09   TIME AVG. MOMENT      1.070E+09
 ALL MOMENT    RESIDUALS ARE ZERO
 LARGEST INCREMENT OF ROTATION     -1.295E-34   AT NODE          1   DOF  6
   INSTANCE: RIGID_PRESS-1                                                                   
 LARGEST CORRECTION TO ROTATION    -1.691E-34   AT NODE          1   DOF  6
   INSTANCE: RIGID_PRESS-1                                                                   
          THE MOMENT    EQUILIBRIUM RESPONSE WAS LINEAR IN THIS INCREMENT

  NUMBER OF EQUATIONS =       687     NUMBER OF FLOATING PT. OPERATIONS =  3.81E+05

     CHECK POINT   START OF SOLVER    

     CHECK POINT  END OF SOLVER       

       ELAPSED USER TIME (SEC)      =  1.00000E-02
       ELAPSED SYSTEM TIME (SEC)    =   0.0000    
       ELAPSED TOTAL CPU TIME (SEC) =  1.00000E-02
       ELAPSED WALLCLOCK TIME (SEC) =          0

               CONVERGENCE CHECKS FOR EQUILIBRIUM ITERATION     2

   MAX. PENETRATION ERROR -66.4013E-03  AT NODE PLATE-1.15 OF CONTACT PAIR 
   (ASSEMBLY_S_SURF-1,ASSEMBLY_RIGID_PRESS-1_SURF-3)
   MAX. CONTACT FORCE ERROR -4.94251E+03 AT NODE PLATE-1.15 OF CONTACT PAIR 
   (ASSEMBLY_S_SURF-1,ASSEMBLY_RIGID_PRESS-1_SURF-3)
          PENETRATION ERROR TOO LARGE COMPARED TO DISPLACEMENT INCREMENT.

 AVERAGE FORCE                      2.319E+06   TIME AVG. FORCE       1.357E+06
 LARGEST RESIDUAL FORCE            -2.126E+06   AT NODE         15   DOF  2
   INSTANCE: PLATE-1                                                                         
 LARGEST INCREMENT OF DISP.         -9.38       AT NODE          1   DOF  2
   INSTANCE: RIGID_PRESS-1                                                                   
 LARGEST CORRECTION TO DISP.        -2.47       AT NODE         16   DOF  1
   INSTANCE: PLATE-1                                                                         
          FORCE     EQUILIBRIUM NOT ACHIEVED WITHIN TOLERANCE.

 AVERAGE MOMENT                     1.719E+09   TIME AVG. MOMENT      1.072E+09
 ALL MOMENT    RESIDUALS ARE ZERO
 LARGEST INCREMENT OF ROTATION     -5.137E-34   AT NODE          1   DOF  6
   INSTANCE: RIGID_PRESS-1                                                                   
 LARGEST CORRECTION TO ROTATION    -3.842E-34   AT NODE          1   DOF  6
   INSTANCE: RIGID_PRESS-1                                                                   
          THE MOMENT    EQUILIBRIUM EQUATIONS HAVE CONVERGED

  NUMBER OF EQUATIONS =       687     NUMBER OF FLOATING PT. OPERATIONS =  3.81E+05

     CHECK POINT   START OF SOLVER    

     CHECK POINT  END OF SOLVER       

       ELAPSED USER TIME (SEC)      =  1.00000E-02
       ELAPSED SYSTEM TIME (SEC)    =   0.0000    
       ELAPSED TOTAL CPU TIME (SEC) =  1.00000E-02
       ELAPSED WALLCLOCK TIME (SEC) =          0

               CONVERGENCE CHECKS FOR EQUILIBRIUM ITERATION     3

   MAX. PENETRATION ERROR 78.2870E-03  AT NODE PLATE-1.15 OF CONTACT PAIR 
   (ASSEMBLY_S_SURF-1,ASSEMBLY_RIGID_PRESS-1_SURF-3)
   MAX. CONTACT FORCE ERROR 4.90203E+03 AT NODE PLATE-1.15 OF CONTACT PAIR 
   (ASSEMBLY_S_SURF-1,ASSEMBLY_RIGID_PRESS-1_SURF-3)
          PENETRATION ERROR TOO LARGE COMPARED TO DISPLACEMENT INCREMENT.

 AVERAGE FORCE                      2.235E+06   TIME AVG. FORCE       1.329E+06
 LARGEST RESIDUAL FORCE             1.765E+06   AT NODE        122   DOF  2
   INSTANCE: PLATE-1                                                                         
 LARGEST INCREMENT OF DISP.         -9.38       AT NODE          1   DOF  2
   INSTANCE: RIGID_PRESS-1                                                                   
 LARGEST CORRECTION TO DISP.         1.18       AT NODE        122   DOF  1
   INSTANCE: PLATE-1                                                                         
          FORCE     EQUILIBRIUM NOT ACHIEVED WITHIN TOLERANCE.

 AVERAGE MOMENT                     1.636E+09   TIME AVG. MOMENT      1.044E+09
 ALL MOMENT    RESIDUALS ARE ZERO
 LARGEST INCREMENT OF ROTATION     -4.798E-34   AT NODE          1   DOF  6
   INSTANCE: RIGID_PRESS-1                                                                   
 LARGEST CORRECTION TO ROTATION     3.386E-35   AT NODE          1   DOF  6
   INSTANCE: RIGID_PRESS-1                                                                   
          THE MOMENT    EQUILIBRIUM EQUATIONS HAVE CONVERGED

  NUMBER OF EQUATIONS =       687     NUMBER OF FLOATING PT. OPERATIONS =  3.81E+05

     CHECK POINT   START OF SOLVER    

     CHECK POINT  END OF SOLVER       

       ELAPSED USER TIME (SEC)      =  1.00000E-02
       ELAPSED SYSTEM TIME (SEC)    =  1.00000E-02
       ELAPSED TOTAL CPU TIME (SEC) =  2.00000E-02
       ELAPSED WALLCLOCK TIME (SEC) =          0

               CONVERGENCE CHECKS FOR EQUILIBRIUM ITERATION     4

   MAX. PENETRATION ERROR 6.45502E-03 AT NODE PLATE-1.123 OF CONTACT PAIR 
   (ASSEMBLY_S_SURF-1,ASSEMBLY_RIGID_PRESS-1_SURF-3)
   MAX. CONTACT FORCE ERROR 647.423       AT NODE PLATE-1.123 OF CONTACT PAIR 
   (ASSEMBLY_S_SURF-1,ASSEMBLY_RIGID_PRESS-1_SURF-3)
          THE CONTACT CONSTRAINTS HAVE CONVERGED.

 AVERAGE FORCE                      2.256E+06   TIME AVG. FORCE       1.336E+06
 LARGEST RESIDUAL FORCE            -4.574E+05   AT NODE        122   DOF  2
   INSTANCE: PLATE-1                                                                         
 LARGEST INCREMENT OF DISP.         -9.38       AT NODE          1   DOF  2
   INSTANCE: RIGID_PRESS-1                                                                   
 LARGEST CORRECTION TO DISP.        0.165       AT NODE        122   DOF  1
   INSTANCE: PLATE-1                                                                         
          FORCE     EQUILIBRIUM NOT ACHIEVED WITHIN TOLERANCE.

 AVERAGE MOMENT                     1.643E+09   TIME AVG. MOMENT      1.046E+09
 ALL MOMENT    RESIDUALS ARE ZERO
 LARGEST INCREMENT OF ROTATION     -8.055E-34   AT NODE          1   DOF  6
   INSTANCE: RIGID_PRESS-1                                                                   
 LARGEST CORRECTION TO ROTATION    -3.257E-34   AT NODE          1   DOF  6
   INSTANCE: RIGID_PRESS-1                                                                   
          THE MOMENT    EQUILIBRIUM EQUATIONS HAVE CONVERGED

  NUMBER OF EQUATIONS =       687     NUMBER OF FLOATING PT. OPERATIONS =  3.81E+05

     CHECK POINT   START OF SOLVER    

     CHECK POINT  END OF SOLVER       

       ELAPSED USER TIME (SEC)      =  1.00000E-02
       ELAPSED SYSTEM TIME (SEC)    =   0.0000    
       ELAPSED TOTAL CPU TIME (SEC) =  1.00000E-02
       ELAPSED WALLCLOCK TIME (SEC) =          0

               CONVERGENCE CHECKS FOR EQUILIBRIUM ITERATION     5

   MAX. PENETRATION ERROR -1.37729E-03 AT NODE PLATE-1.123 OF CONTACT PAIR 
   (ASSEMBLY_S_SURF-1,ASSEMBLY_RIGID_PRESS-1_SURF-3)
   MAX. CONTACT FORCE ERROR -138.074       AT NODE PLATE-1.123 OF CONTACT PAIR 
   (ASSEMBLY_S_SURF-1,ASSEMBLY_RIGID_PRESS-1_SURF-3)
          THE CONTACT CONSTRAINTS HAVE CONVERGED.

 AVERAGE FORCE                      2.241E+06   TIME AVG. FORCE       1.331E+06
 LARGEST RESIDUAL FORCE            -5.483E+04   AT NODE        123   DOF  2
   INSTANCE: PLATE-1                                                                         
 LARGEST INCREMENT OF DISP.         -9.38       AT NODE          1   DOF  2
   INSTANCE: RIGID_PRESS-1                                                                   
 LARGEST CORRECTION TO DISP.       -3.363E-02   AT NODE        122   DOF  1
   INSTANCE: PLATE-1                                                                         
          FORCE     EQUILIBRIUM NOT ACHIEVED WITHIN TOLERANCE.

 AVERAGE MOMENT                     1.642E+09   TIME AVG. MOMENT      1.046E+09
 ALL MOMENT    RESIDUALS ARE ZERO
 LARGEST INCREMENT OF ROTATION     -8.004E-34   AT NODE          1   DOF  6
   INSTANCE: RIGID_PRESS-1                                                                   
 LARGEST CORRECTION TO ROTATION     5.098E-36   AT NODE          1   DOF  6
   INSTANCE: RIGID_PRESS-1                                                                   
          THE MOMENT    EQUILIBRIUM EQUATIONS HAVE CONVERGED

  NUMBER OF EQUATIONS =       687     NUMBER OF FLOATING PT. OPERATIONS =  3.81E+05

     CHECK POINT   START OF SOLVER    

     CHECK POINT  END OF SOLVER       

       ELAPSED USER TIME (SEC)      =  1.00000E-02
       ELAPSED SYSTEM TIME (SEC)    =   0.0000    
       ELAPSED TOTAL CPU TIME (SEC) =  1.00000E-02
       ELAPSED WALLCLOCK TIME (SEC) =          0

               CONVERGENCE CHECKS FOR EQUILIBRIUM ITERATION     6

   MAX. PENETRATION ERROR 414.688E-06   AT NODE PLATE-1.123 OF CONTACT PAIR 
   (ASSEMBLY_S_SURF-1,ASSEMBLY_RIGID_PRESS-1_SURF-3)
   MAX. CONTACT FORCE ERROR 41.5787      AT NODE PLATE-1.123 OF CONTACT PAIR 
   (ASSEMBLY_S_SURF-1,ASSEMBLY_RIGID_PRESS-1_SURF-3)
          THE CONTACT CONSTRAINTS HAVE CONVERGED.

 AVERAGE FORCE                      2.249E+06   TIME AVG. FORCE       1.334E+06
 LARGEST RESIDUAL FORCE            -3.572E+04   AT NODE        126   DOF  2
   INSTANCE: PLATE-1                                                                         
 LARGEST INCREMENT OF DISP.         -9.38       AT NODE          1   DOF  2
   INSTANCE: RIGID_PRESS-1                                                                   
 LARGEST CORRECTION TO DISP.       -2.179E-02   AT NODE        123   DOF  2
   INSTANCE: PLATE-1                                                                         
          FORCE     EQUILIBRIUM NOT ACHIEVED WITHIN TOLERANCE.

 AVERAGE MOMENT                     1.642E+09   TIME AVG. MOMENT      1.046E+09
 ALL MOMENT    RESIDUALS ARE ZERO
 LARGEST INCREMENT OF ROTATION     -8.188E-34   AT NODE          1   DOF  6
   INSTANCE: RIGID_PRESS-1                                                                   
 LARGEST CORRECTION TO ROTATION    -1.844E-35   AT NODE          1   DOF  6
   INSTANCE: RIGID_PRESS-1                                                                   
          THE MOMENT    EQUILIBRIUM EQUATIONS HAVE CONVERGED

  NUMBER OF EQUATIONS =       687     NUMBER OF FLOATING PT. OPERATIONS =  3.81E+05

     CHECK POINT   START OF SOLVER    

     CHECK POINT  END OF SOLVER       

       ELAPSED USER TIME (SEC)      =  1.00000E-02
       ELAPSED SYSTEM TIME (SEC)    =   0.0000    
       ELAPSED TOTAL CPU TIME (SEC) =  1.00000E-02
       ELAPSED WALLCLOCK TIME (SEC) =          0

               CONVERGENCE CHECKS FOR EQUILIBRIUM ITERATION     7

   MAX. PENETRATION ERROR -253.681E-06   AT NODE PLATE-1.123 OF CONTACT PAIR 
   (ASSEMBLY_S_SURF-1,ASSEMBLY_RIGID_PRESS-1_SURF-3)
   MAX. CONTACT FORCE ERROR -25.4336      AT NODE PLATE-1.123 OF CONTACT PAIR 
   (ASSEMBLY_S_SURF-1,ASSEMBLY_RIGID_PRESS-1_SURF-3)
          THE CONTACT CONSTRAINTS HAVE CONVERGED.

 AVERAGE FORCE                      2.240E+06   TIME AVG. FORCE       1.331E+06
 LARGEST RESIDUAL FORCE            -3.686E+04   AT NODE          2   DOF  2
   INSTANCE: PLATE-1                                                                         
 LARGEST INCREMENT OF DISP.         -9.38       AT NODE          1   DOF  2
   INSTANCE: RIGID_PRESS-1                                                                   
 LARGEST CORRECTION TO DISP.        2.078E-02   AT NODE          2   DOF  2
   INSTANCE: PLATE-1                                                                         
          FORCE     EQUILIBRIUM NOT ACHIEVED WITHIN TOLERANCE.

 AVERAGE MOMENT                     1.642E+09   TIME AVG. MOMENT      1.046E+09
 ALL MOMENT    RESIDUALS ARE ZERO
 LARGEST INCREMENT OF ROTATION     -8.073E-34   AT NODE          1   DOF  6
   INSTANCE: RIGID_PRESS-1                                                                   
 LARGEST CORRECTION TO ROTATION     1.157E-35   AT NODE          1   DOF  6
   INSTANCE: RIGID_PRESS-1                                                                   
          THE MOMENT    EQUILIBRIUM EQUATIONS HAVE CONVERGED

  NUMBER OF EQUATIONS =       687     NUMBER OF FLOATING PT. OPERATIONS =  3.81E+05

     CHECK POINT   START OF SOLVER    

     CHECK POINT  END OF SOLVER       

       ELAPSED USER TIME (SEC)      =  1.00000E-02
       ELAPSED SYSTEM TIME (SEC)    =   0.0000    
       ELAPSED TOTAL CPU TIME (SEC) =  1.00000E-02
       ELAPSED WALLCLOCK TIME (SEC) =          0

               CONVERGENCE CHECKS FOR EQUILIBRIUM ITERATION     8

   MAX. PENETRATION ERROR 198.339E-06   AT NODE PLATE-1.123 OF CONTACT PAIR 
   (ASSEMBLY_S_SURF-1,ASSEMBLY_RIGID_PRESS-1_SURF-3)
   MAX. CONTACT FORCE ERROR 19.8859      AT NODE PLATE-1.123 OF CONTACT PAIR 
   (ASSEMBLY_S_SURF-1,ASSEMBLY_RIGID_PRESS-1_SURF-3)
          THE CONTACT CONSTRAINTS HAVE CONVERGED.

 AVERAGE FORCE                      2.246E+06   TIME AVG. FORCE       1.333E+06
 LARGEST RESIDUAL FORCE             3.579E+04   AT NODE          2   DOF  2
   INSTANCE: PLATE-1                                                                         
 LARGEST INCREMENT OF DISP.         -9.38       AT NODE          1   DOF  2
   INSTANCE: RIGID_PRESS-1                                                                   
 LARGEST CORRECTION TO DISP.       -2.070E-02   AT NODE          2   DOF  2
   INSTANCE: PLATE-1                                                                         
          FORCE     EQUILIBRIUM NOT ACHIEVED WITHIN TOLERANCE.

 AVERAGE MOMENT                     1.642E+09   TIME AVG. MOMENT      1.046E+09
 ALL MOMENT    RESIDUALS ARE ZERO
 LARGEST INCREMENT OF ROTATION     -8.119E-34   AT NODE          1   DOF  6
   INSTANCE: RIGID_PRESS-1                                                                   
 LARGEST CORRECTION TO ROTATION    -4.665E-36   AT NODE          1   DOF  6
   INSTANCE: RIGID_PRESS-1                                                                   
          THE MOMENT    EQUILIBRIUM EQUATIONS HAVE CONVERGED

  NUMBER OF EQUATIONS =       687     NUMBER OF FLOATING PT. OPERATIONS =  3.81E+05

     CHECK POINT   START OF SOLVER    

     CHECK POINT  END OF SOLVER       

       ELAPSED USER TIME (SEC)      =  1.00000E-02
       ELAPSED SYSTEM TIME (SEC)    =   0.0000    
       ELAPSED TOTAL CPU TIME (SEC) =  1.00000E-02
       ELAPSED WALLCLOCK TIME (SEC) =          0

               CONVERGENCE CHECKS FOR EQUILIBRIUM ITERATION     9

   MAX. PENETRATION ERROR -168.657E-06   AT NODE PLATE-1.123 OF CONTACT PAIR 
   (ASSEMBLY_S_SURF-1,ASSEMBLY_RIGID_PRESS-1_SURF-3)
   MAX. CONTACT FORCE ERROR -16.9095      AT NODE PLATE-1.123 OF CONTACT PAIR 
   (ASSEMBLY_S_SURF-1,ASSEMBLY_RIGID_PRESS-1_SURF-3)
          THE CONTACT CONSTRAINTS HAVE CONVERGED.

 AVERAGE FORCE                      2.240E+06   TIME AVG. FORCE       1.331E+06
 LARGEST RESIDUAL FORCE            -3.420E+04   AT NODE          2   DOF  2
   INSTANCE: PLATE-1                                                                         
 LARGEST INCREMENT OF DISP.         -9.38       AT NODE          1   DOF  2
   INSTANCE: RIGID_PRESS-1                                                                   
 LARGEST CORRECTION TO DISP.        1.973E-02   AT NODE          2   DOF  2
   INSTANCE: PLATE-1                                                                         
          FORCE     EQUILIBRIUM NOT ACHIEVED WITHIN TOLERANCE.

 AVERAGE MOMENT                     1.642E+09   TIME AVG. MOMENT      1.046E+09
 ALL MOMENT    RESIDUALS ARE ZERO
 LARGEST INCREMENT OF ROTATION     -8.091E-34   AT NODE          1   DOF  6
   INSTANCE: RIGID_PRESS-1                                                                   
 LARGEST CORRECTION TO ROTATION     2.830E-36   AT NODE          1   DOF  6
   INSTANCE: RIGID_PRESS-1                                                                   
          THE MOMENT    EQUILIBRIUM EQUATIONS HAVE CONVERGED

  NUMBER OF EQUATIONS =       687     NUMBER OF FLOATING PT. OPERATIONS =  3.81E+05

     CHECK POINT   START OF SOLVER    

     CHECK POINT  END OF SOLVER       

       ELAPSED USER TIME (SEC)      =  1.00000E-02
       ELAPSED SYSTEM TIME (SEC)    =   0.0000    
       ELAPSED TOTAL CPU TIME (SEC) =  1.00000E-02
       ELAPSED WALLCLOCK TIME (SEC) =          0

               CONVERGENCE CHECKS FOR EQUILIBRIUM ITERATION    10

   MAX. PENETRATION ERROR 149.163E-06   AT NODE PLATE-1.123 OF CONTACT PAIR 
   (ASSEMBLY_S_SURF-1,ASSEMBLY_RIGID_PRESS-1_SURF-3)
   MAX. CONTACT FORCE ERROR 14.9554      AT NODE PLATE-1.123 OF CONTACT PAIR 
   (ASSEMBLY_S_SURF-1,ASSEMBLY_RIGID_PRESS-1_SURF-3)
          THE CONTACT CONSTRAINTS HAVE CONVERGED.

 AVERAGE FORCE                      2.246E+06   TIME AVG. FORCE       1.333E+06
 LARGEST RESIDUAL FORCE             3.148E+04   AT NODE          2   DOF  2
   INSTANCE: PLATE-1                                                                         
 LARGEST INCREMENT OF DISP.         -9.38       AT NODE          1   DOF  2
   INSTANCE: RIGID_PRESS-1                                                                   
 LARGEST CORRECTION TO DISP.       -1.843E-02   AT NODE          2   DOF  2
   INSTANCE: PLATE-1                                                                         
          FORCE     EQUILIBRIUM NOT ACHIEVED WITHIN TOLERANCE.

 AVERAGE MOMENT                     1.642E+09   TIME AVG. MOMENT      1.046E+09
 ALL MOMENT    RESIDUALS ARE ZERO
 LARGEST INCREMENT OF ROTATION     -8.111E-34   AT NODE          1   DOF  6
   INSTANCE: RIGID_PRESS-1                                                                   
 LARGEST CORRECTION TO ROTATION    -1.974E-36   AT NODE          1   DOF  6
   INSTANCE: RIGID_PRESS-1                                                                   
          THE MOMENT    EQUILIBRIUM EQUATIONS HAVE CONVERGED

  NUMBER OF EQUATIONS =       687     NUMBER OF FLOATING PT. OPERATIONS =  3.81E+05

     CHECK POINT   START OF SOLVER    

     CHECK POINT  END OF SOLVER       

       ELAPSED USER TIME (SEC)      =  1.00000E-02
       ELAPSED SYSTEM TIME (SEC)    =   0.0000    
       ELAPSED TOTAL CPU TIME (SEC) =  1.00000E-02
       ELAPSED WALLCLOCK TIME (SEC) =          0

               CONVERGENCE CHECKS FOR EQUILIBRIUM ITERATION    11

   MAX. PENETRATION ERROR -134.274E-06   AT NODE PLATE-1.123 OF CONTACT PAIR 
   (ASSEMBLY_S_SURF-1,ASSEMBLY_RIGID_PRESS-1_SURF-3)
   MAX. CONTACT FORCE ERROR -13.4622      AT NODE PLATE-1.123 OF CONTACT PAIR 
   (ASSEMBLY_S_SURF-1,ASSEMBLY_RIGID_PRESS-1_SURF-3)
          THE CONTACT CONSTRAINTS HAVE CONVERGED.

 AVERAGE FORCE                      2.240E+06   TIME AVG. FORCE       1.331E+06
 LARGEST RESIDUAL FORCE            -2.935E+04   AT NODE          2   DOF  2
   INSTANCE: PLATE-1                                                                         
 LARGEST INCREMENT OF DISP.         -9.38       AT NODE          1   DOF  2
   INSTANCE: RIGID_PRESS-1                                                                   
 LARGEST CORRECTION TO DISP.        1.703E-02   AT NODE          2   DOF  2
   INSTANCE: PLATE-1                                                                         
          FORCE     EQUILIBRIUM NOT ACHIEVED WITHIN TOLERANCE.

 AVERAGE MOMENT                     1.642E+09   TIME AVG. MOMENT      1.046E+09
 ALL MOMENT    RESIDUALS ARE ZERO
 LARGEST INCREMENT OF ROTATION     -8.104E-34   AT NODE          1   DOF  6
   INSTANCE: RIGID_PRESS-1                                                                   
 LARGEST CORRECTION TO ROTATION     6.796E-37   AT NODE          1   DOF  6
   INSTANCE: RIGID_PRESS-1                                                                   
          THE MOMENT    EQUILIBRIUM EQUATIONS HAVE CONVERGED

  NUMBER OF EQUATIONS =       687     NUMBER OF FLOATING PT. OPERATIONS =  3.81E+05

     CHECK POINT   START OF SOLVER    

     CHECK POINT  END OF SOLVER       

       ELAPSED USER TIME (SEC)      =  1.00000E-02
       ELAPSED SYSTEM TIME (SEC)    =   0.0000    
       ELAPSED TOTAL CPU TIME (SEC) =  1.00000E-02
       ELAPSED WALLCLOCK TIME (SEC) =          0

               CONVERGENCE CHECKS FOR EQUILIBRIUM ITERATION    12

   MAX. PENETRATION ERROR 122.360E-06   AT NODE PLATE-1.123 OF CONTACT PAIR 
   (ASSEMBLY_S_SURF-1,ASSEMBLY_RIGID_PRESS-1_SURF-3)
   MAX. CONTACT FORCE ERROR 12.2681      AT NODE PLATE-1.123 OF CONTACT PAIR 
   (ASSEMBLY_S_SURF-1,ASSEMBLY_RIGID_PRESS-1_SURF-3)
          THE CONTACT CONSTRAINTS HAVE CONVERGED.

 AVERAGE FORCE                      2.246E+06   TIME AVG. FORCE       1.333E+06
 LARGEST RESIDUAL FORCE             2.674E+04   AT NODE          2   DOF  2
   INSTANCE: PLATE-1                                                                         
 LARGEST INCREMENT OF DISP.         -9.38       AT NODE          1   DOF  2
   INSTANCE: RIGID_PRESS-1                                                                   
 LARGEST CORRECTION TO DISP.       -1.568E-02   AT NODE          2   DOF  2
   INSTANCE: PLATE-1                                                                         
          FORCE     EQUILIBRIUM NOT ACHIEVED WITHIN TOLERANCE.

 AVERAGE MOMENT                     1.642E+09   TIME AVG. MOMENT      1.046E+09
 ALL MOMENT    RESIDUALS ARE ZERO
 LARGEST INCREMENT OF ROTATION     -8.106E-34   AT NODE          1   DOF  6
   INSTANCE: RIGID_PRESS-1                                                                   
 LARGEST CORRECTION TO ROTATION    -2.334E-37   AT NODE          1   DOF  6
   INSTANCE: RIGID_PRESS-1                                                                   
          THE MOMENT    EQUILIBRIUM EQUATIONS HAVE CONVERGED

  NUMBER OF EQUATIONS =       687     NUMBER OF FLOATING PT. OPERATIONS =  3.81E+05

     CHECK POINT   START OF SOLVER    

     CHECK POINT  END OF SOLVER       

       ELAPSED USER TIME (SEC)      =  1.00000E-02
       ELAPSED SYSTEM TIME (SEC)    =   0.0000    
       ELAPSED TOTAL CPU TIME (SEC) =  1.00000E-02
       ELAPSED WALLCLOCK TIME (SEC) =          1

               CONVERGENCE CHECKS FOR EQUILIBRIUM ITERATION    13

   MAX. PENETRATION ERROR -111.599E-06   AT NODE PLATE-1.123 OF CONTACT PAIR 
   (ASSEMBLY_S_SURF-1,ASSEMBLY_RIGID_PRESS-1_SURF-3)
   MAX. CONTACT FORCE ERROR -11.1889      AT NODE PLATE-1.123 OF CONTACT PAIR 
   (ASSEMBLY_S_SURF-1,ASSEMBLY_RIGID_PRESS-1_SURF-3)
          THE CONTACT CONSTRAINTS HAVE CONVERGED.

 AVERAGE FORCE                      2.240E+06   TIME AVG. FORCE       1.331E+06
 LARGEST RESIDUAL FORCE            -2.476E+04   AT NODE          2   DOF  2
   INSTANCE: PLATE-1                                                                         
 LARGEST INCREMENT OF DISP.         -9.38       AT NODE          1   DOF  2
   INSTANCE: RIGID_PRESS-1                                                                   
 LARGEST CORRECTION TO DISP.        1.439E-02   AT NODE          2   DOF  2
   INSTANCE: PLATE-1                                                                         
          THE FORCE     EQUILIBRIUM EQUATIONS HAVE CONVERGED BASED ON ALTERNATIVE
          RESIDUAL CRITERION
 

 ***WARNING: FORCE EQUILIBRIUM ACCEPTED USING THE ALTERNATE TOLERANCE.

 AVERAGE MOMENT                     1.642E+09   TIME AVG. MOMENT      1.046E+09
 ALL MOMENT    RESIDUALS ARE ZERO
 LARGEST INCREMENT OF ROTATION     -8.106E-34   AT NODE          1   DOF  6
   INSTANCE: RIGID_PRESS-1                                                                   
 LARGEST CORRECTION TO ROTATION     5.265E-38   AT NODE          1   DOF  6
   INSTANCE: RIGID_PRESS-1                                                                   
          THE MOMENT    EQUILIBRIUM EQUATIONS HAVE CONVERGED

 ITERATION SUMMARY FOR THE INCREMENT:  13 TOTAL ITERATIONS, OF WHICH
   0 ARE SEVERE DISCONTINUITY ITERATIONS AND 13 ARE EQUILIBRIUM ITERATIONS.

 TIME INCREMENT COMPLETED  3.750E-02,  FRACTION OF STEP COMPLETED  0.875    
 STEP TIME COMPLETED       8.750E-02,  TOTAL TIME COMPLETED        8.750E-02


  INCREMENT     4 STARTS. ATTEMPT NUMBER  1, TIME INCREMENT  1.250E-02

  NUMBER OF EQUATIONS =       687     NUMBER OF FLOATING PT. OPERATIONS =  3.81E+05

     CHECK POINT   START OF SOLVER    

     CHECK POINT  END OF SOLVER       

       ELAPSED USER TIME (SEC)      =  1.00000E-02
       ELAPSED SYSTEM TIME (SEC)    =   0.0000    
       ELAPSED TOTAL CPU TIME (SEC) =  1.00000E-02
       ELAPSED WALLCLOCK TIME (SEC) =          0

               CONVERGENCE CHECKS FOR EQUILIBRIUM ITERATION     1

   MAX. PENETRATION ERROR 133.977E-03   AT NODE PLATE-1.123 OF CONTACT PAIR 
   (ASSEMBLY_S_SURF-1,ASSEMBLY_RIGID_PRESS-1_SURF-3)
   MAX. CONTACT FORCE ERROR 13.8254E+03  AT NODE PLATE-1.123 OF CONTACT PAIR 
   (ASSEMBLY_S_SURF-1,ASSEMBLY_RIGID_PRESS-1_SURF-3)
          PENETRATION ERROR TOO LARGE COMPARED TO DISPLACEMENT INCREMENT.

 AVERAGE FORCE                      2.630E+06   TIME AVG. FORCE       1.655E+06
 LARGEST RESIDUAL FORCE             2.014E+06   AT NODE          2   DOF  2
   INSTANCE: PLATE-1                                                                         
 LARGEST INCREMENT OF DISP.          4.68       AT NODE        122   DOF  1
   INSTANCE: PLATE-1                                                                         
 LARGEST CORRECTION TO DISP.         2.94       AT NODE        122   DOF  1
   INSTANCE: PLATE-1                                                                         
          FORCE     EQUILIBRIUM NOT ACHIEVED WITHIN TOLERANCE.

 AVERAGE MOMENT                     1.732E+09   TIME AVG. MOMENT      1.218E+09
 ALL MOMENT    RESIDUALS ARE ZERO
 LARGEST INCREMENT OF ROTATION     -5.745E-34   AT NODE          1   DOF  6
   INSTANCE: RIGID_PRESS-1                                                                   
 LARGEST CORRECTION TO ROTATION    -3.043E-34   AT NODE          1   DOF  6
   INSTANCE: RIGID_PRESS-1                                                                   
          THE MOMENT    EQUILIBRIUM RESPONSE WAS LINEAR IN THIS INCREMENT

  NUMBER OF EQUATIONS =       687     NUMBER OF FLOATING PT. OPERATIONS =  3.81E+05

     CHECK POINT   START OF SOLVER    

     CHECK POINT  END OF SOLVER       

       ELAPSED USER TIME (SEC)      =   0.0000    
       ELAPSED SYSTEM TIME (SEC)    =   0.0000    
       ELAPSED TOTAL CPU TIME (SEC) =   0.0000    
       ELAPSED WALLCLOCK TIME (SEC) =          0

               CONVERGENCE CHECKS FOR EQUILIBRIUM ITERATION     2

   MAX. PENETRATION ERROR -40.5125E-03  AT NODE PLATE-1.15 OF CONTACT PAIR 
   (ASSEMBLY_S_SURF-1,ASSEMBLY_RIGID_PRESS-1_SURF-3)
   MAX. CONTACT FORCE ERROR -2.08508E+03 AT NODE PLATE-1.15 OF CONTACT PAIR 
   (ASSEMBLY_S_SURF-1,ASSEMBLY_RIGID_PRESS-1_SURF-3)
          PENETRATION ERROR TOO LARGE COMPARED TO DISPLACEMENT INCREMENT.

 AVERAGE FORCE                      2.629E+06   TIME AVG. FORCE       1.655E+06
 LARGEST RESIDUAL FORCE            -8.683E+05   AT NODE         15   DOF  2
   INSTANCE: PLATE-1                                                                         
 LARGEST INCREMENT OF DISP.          4.62       AT NODE        122   DOF  1
   INSTANCE: PLATE-1                                                                         
 LARGEST CORRECTION TO DISP.        0.145       AT NODE         14   DOF  2
   INSTANCE: PLATE-1                                                                         
          FORCE     EQUILIBRIUM NOT ACHIEVED WITHIN TOLERANCE.

 AVERAGE MOMENT                     1.775E+09   TIME AVG. MOMENT      1.228E+09
 ALL MOMENT    RESIDUALS ARE ZERO
 LARGEST INCREMENT OF ROTATION      1.491E-33   AT NODE          1   DOF  6
   INSTANCE: RIGID_PRESS-1                                                                   
 LARGEST CORRECTION TO ROTATION     2.065E-33   AT NODE          1   DOF  6
   INSTANCE: RIGID_PRESS-1                                                                   
          THE MOMENT    EQUILIBRIUM EQUATIONS HAVE CONVERGED

  NUMBER OF EQUATIONS =       687     NUMBER OF FLOATING PT. OPERATIONS =  3.81E+05

     CHECK POINT   START OF SOLVER    

     CHECK POINT  END OF SOLVER       

       ELAPSED USER TIME (SEC)      =  1.00000E-02
       ELAPSED SYSTEM TIME (SEC)    =   0.0000    
       ELAPSED TOTAL CPU TIME (SEC) =  1.00000E-02
       ELAPSED WALLCLOCK TIME (SEC) =          0

               CONVERGENCE CHECKS FOR EQUILIBRIUM ITERATION     3

   MAX. PENETRATION ERROR 49.1646E-03  AT NODE PLATE-1.15 OF CONTACT PAIR 
   (ASSEMBLY_S_SURF-1,ASSEMBLY_RIGID_PRESS-1_SURF-3)
   MAX. CONTACT FORCE ERROR 2.53801E+03 AT NODE PLATE-1.15 OF CONTACT PAIR 
   (ASSEMBLY_S_SURF-1,ASSEMBLY_RIGID_PRESS-1_SURF-3)
          PENETRATION ERROR TOO LARGE COMPARED TO DISPLACEMENT INCREMENT.

 AVERAGE FORCE                      2.624E+06   TIME AVG. FORCE       1.654E+06
 LARGEST RESIDUAL FORCE             1.097E+06   AT NODE         15   DOF  2
   INSTANCE: PLATE-1                                                                         
 LARGEST INCREMENT OF DISP.          4.74       AT NODE        122   DOF  1
   INSTANCE: PLATE-1                                                                         
 LARGEST CORRECTION TO DISP.       -0.158       AT NODE         14   DOF  2
   INSTANCE: PLATE-1                                                                         
          FORCE     EQUILIBRIUM NOT ACHIEVED WITHIN TOLERANCE.

 AVERAGE MOMENT                     1.726E+09   TIME AVG. MOMENT      1.216E+09
 ALL MOMENT    RESIDUALS ARE ZERO
 LARGEST INCREMENT OF ROTATION     -2.648E-34   AT NODE          1   DOF  6
   INSTANCE: RIGID_PRESS-1                                                                   
 LARGEST CORRECTION TO ROTATION    -1.755E-33   AT NODE          1   DOF  6
   INSTANCE: RIGID_PRESS-1                                                                   
          THE MOMENT    EQUILIBRIUM EQUATIONS HAVE CONVERGED

  NUMBER OF EQUATIONS =       687     NUMBER OF FLOATING PT. OPERATIONS =  3.81E+05

     CHECK POINT   START OF SOLVER    

     CHECK POINT  END OF SOLVER       

       ELAPSED USER TIME (SEC)      =  1.00000E-02
       ELAPSED SYSTEM TIME (SEC)    =   0.0000    
       ELAPSED TOTAL CPU TIME (SEC) =  1.00000E-02
       ELAPSED WALLCLOCK TIME (SEC) =          0

               CONVERGENCE CHECKS FOR EQUILIBRIUM ITERATION     4

   MAX. PENETRATION ERROR -68.0259E-03  AT NODE PLATE-1.15 OF CONTACT PAIR 
   (ASSEMBLY_S_SURF-1,ASSEMBLY_RIGID_PRESS-1_SURF-3)
   MAX. CONTACT FORCE ERROR -3.50069E+03 AT NODE PLATE-1.15 OF CONTACT PAIR 
   (ASSEMBLY_S_SURF-1,ASSEMBLY_RIGID_PRESS-1_SURF-3)
          PENETRATION ERROR TOO LARGE COMPARED TO DISPLACEMENT INCREMENT.

 AVERAGE FORCE                      2.615E+06   TIME AVG. FORCE       1.652E+06
 LARGEST RESIDUAL FORCE            -1.336E+06   AT NODE         15   DOF  2
   INSTANCE: PLATE-1                                                                         
 LARGEST INCREMENT OF DISP.          4.57       AT NODE        122   DOF  1
   INSTANCE: PLATE-1                                                                         
 LARGEST CORRECTION TO DISP.        0.184       AT NODE         63   DOF  1
   INSTANCE: PLATE-1                                                                         
          FORCE     EQUILIBRIUM NOT ACHIEVED WITHIN TOLERANCE.

 AVERAGE MOMENT                     1.785E+09   TIME AVG. MOMENT      1.231E+09
 ALL MOMENT    RESIDUALS ARE ZERO
 LARGEST INCREMENT OF ROTATION      1.615E-33   AT NODE          1   DOF  6
   INSTANCE: RIGID_PRESS-1                                                                   
 LARGEST CORRECTION TO ROTATION     1.880E-33   AT NODE          1   DOF  6
   INSTANCE: RIGID_PRESS-1                                                                   
          THE MOMENT    EQUILIBRIUM EQUATIONS HAVE CONVERGED
 

 ***NOTE: THE SOLUTION APPEARS TO BE DIVERGING. CONVERGENCE IS JUDGED UNLIKELY.


  INCREMENT     4 STARTS. ATTEMPT NUMBER  2, TIME INCREMENT  3.125E-03

  NUMBER OF EQUATIONS =       687     NUMBER OF FLOATING PT. OPERATIONS =  3.81E+05

     CHECK POINT   START OF SOLVER    

     CHECK POINT  END OF SOLVER       

       ELAPSED USER TIME (SEC)      =  1.00000E-02
       ELAPSED SYSTEM TIME (SEC)    =  3.00000E-02
       ELAPSED TOTAL CPU TIME (SEC) =  4.00000E-02
       ELAPSED WALLCLOCK TIME (SEC) =          0

               CONVERGENCE CHECKS FOR EQUILIBRIUM ITERATION     1

   MAX. PENETRATION ERROR 1.64596E-03 AT NODE PLATE-1.123 OF CONTACT PAIR 
   (ASSEMBLY_S_SURF-1,ASSEMBLY_RIGID_PRESS-1_SURF-3)
   MAX. CONTACT FORCE ERROR 165.034       AT NODE PLATE-1.123 OF CONTACT PAIR 
   (ASSEMBLY_S_SURF-1,ASSEMBLY_RIGID_PRESS-1_SURF-3)
          THE CONTACT CONSTRAINTS HAVE CONVERGED.

 AVERAGE FORCE                      2.356E+06   TIME AVG. FORCE       1.587E+06
 LARGEST RESIDUAL FORCE            -4.727E+05   AT NODE          2   DOF  2
   INSTANCE: PLATE-1                                                                         
 LARGEST INCREMENT OF DISP.        -0.781       AT NODE          1   DOF  2
   INSTANCE: RIGID_PRESS-1                                                                   
 LARGEST CORRECTION TO DISP.       -0.781       AT NODE          1   DOF  2
   INSTANCE: RIGID_PRESS-1                                                                   
          FORCE     EQUILIBRIUM NOT ACHIEVED WITHIN TOLERANCE.

 AVERAGE MOMENT                     1.706E+09   TIME AVG. MOMENT      1.211E+09
 ALL MOMENT    RESIDUALS ARE ZERO
 LARGEST INCREMENT OF ROTATION     -8.424E-34   AT NODE          1   DOF  6
   INSTANCE: RIGID_PRESS-1                                                                   
 LARGEST CORRECTION TO ROTATION    -8.424E-34   AT NODE          1   DOF  6
   INSTANCE: RIGID_PRESS-1                                                                   
          THE MOMENT    EQUILIBRIUM RESPONSE WAS LINEAR IN THIS INCREMENT

  NUMBER OF EQUATIONS =       687     NUMBER OF FLOATING PT. OPERATIONS =  3.81E+05

     CHECK POINT   START OF SOLVER    

     CHECK POINT  END OF SOLVER       

       ELAPSED USER TIME (SEC)      =  1.00000E-02
       ELAPSED SYSTEM TIME (SEC)    =   0.0000    
       ELAPSED TOTAL CPU TIME (SEC) =  1.00000E-02
       ELAPSED WALLCLOCK TIME (SEC) =          0

               CONVERGENCE CHECKS FOR EQUILIBRIUM ITERATION     2

   MAX. PENETRATION ERROR -97.4342E-03  AT NODE PLATE-1.15 OF CONTACT PAIR 
   (ASSEMBLY_S_SURF-1,ASSEMBLY_RIGID_PRESS-1_SURF-3)
   MAX. CONTACT FORCE ERROR -4.91586E+03 AT NODE PLATE-1.15 OF CONTACT PAIR 
   (ASSEMBLY_S_SURF-1,ASSEMBLY_RIGID_PRESS-1_SURF-3)
          PENETRATION ERROR TOO LARGE COMPARED TO DISPLACEMENT INCREMENT.

 AVERAGE FORCE                      2.407E+06   TIME AVG. FORCE       1.600E+06
 LARGEST RESIDUAL FORCE            -6.577E+05   AT NODE        122   DOF  2
   INSTANCE: PLATE-1                                                                         
 LARGEST INCREMENT OF DISP.          1.03       AT NODE         73   DOF  1
   INSTANCE: PLATE-1                                                                         
 LARGEST CORRECTION TO DISP.         1.01       AT NODE         73   DOF  1
   INSTANCE: PLATE-1                                                                         
          FORCE     EQUILIBRIUM NOT ACHIEVED WITHIN TOLERANCE.

 AVERAGE MOMENT                     1.704E+09   TIME AVG. MOMENT      1.211E+09
 ALL MOMENT    RESIDUALS ARE ZERO
 LARGEST INCREMENT OF ROTATION     -8.437E-34   AT NODE          1   DOF  6
   INSTANCE: RIGID_PRESS-1                                                                   
 LARGEST CORRECTION TO ROTATION    -1.307E-36   AT NODE          1   DOF  6
   INSTANCE: RIGID_PRESS-1                                                                   
          THE MOMENT    EQUILIBRIUM EQUATIONS HAVE CONVERGED

  NUMBER OF EQUATIONS =       687     NUMBER OF FLOATING PT. OPERATIONS =  3.81E+05

     CHECK POINT   START OF SOLVER    

     CHECK POINT  END OF SOLVER       

       ELAPSED USER TIME (SEC)      =  1.00000E-02
       ELAPSED SYSTEM TIME (SEC)    =   0.0000    
       ELAPSED TOTAL CPU TIME (SEC) =  1.00000E-02
       ELAPSED WALLCLOCK TIME (SEC) =          0

               CONVERGENCE CHECKS FOR EQUILIBRIUM ITERATION     3

   MAX. PENETRATION ERROR -10.3257E-03  AT NODE PLATE-1.15 OF CONTACT PAIR 
   (ASSEMBLY_S_SURF-1,ASSEMBLY_RIGID_PRESS-1_SURF-3)
   MAX. CONTACT FORCE ERROR -521.076       AT NODE PLATE-1.15 OF CONTACT PAIR 
   (ASSEMBLY_S_SURF-1,ASSEMBLY_RIGID_PRESS-1_SURF-3)
          PENETRATION ERROR TOO LARGE COMPARED TO DISPLACEMENT INCREMENT.

 AVERAGE FORCE                      2.371E+06   TIME AVG. FORCE       1.591E+06
 LARGEST RESIDUAL FORCE            -7.793E+04   AT NODE         15   DOF  2
   INSTANCE: PLATE-1                                                                         
 LARGEST INCREMENT OF DISP.          1.10       AT NODE         74   DOF  1
   INSTANCE: PLATE-1                                                                         
 LARGEST CORRECTION TO DISP.        7.927E-02   AT NODE         75   DOF  1
   INSTANCE: PLATE-1                                                                         
          FORCE     EQUILIBRIUM NOT ACHIEVED WITHIN TOLERANCE.

 AVERAGE MOMENT                     1.704E+09   TIME AVG. MOMENT      1.211E+09
 ALL MOMENT    RESIDUALS ARE ZERO
 LARGEST INCREMENT OF ROTATION     -7.227E-34   AT NODE          1   DOF  6
   INSTANCE: RIGID_PRESS-1                                                                   
 LARGEST CORRECTION TO ROTATION     1.211E-34   AT NODE          1   DOF  6
   INSTANCE: RIGID_PRESS-1                                                                   
          THE MOMENT    EQUILIBRIUM EQUATIONS HAVE CONVERGED

  NUMBER OF EQUATIONS =       687     NUMBER OF FLOATING PT. OPERATIONS =  3.81E+05

     CHECK POINT   START OF SOLVER    

     CHECK POINT  END OF SOLVER       

       ELAPSED USER TIME (SEC)      =   0.0000    
       ELAPSED SYSTEM TIME (SEC)    =   0.0000    
       ELAPSED TOTAL CPU TIME (SEC) =   0.0000    
       ELAPSED WALLCLOCK TIME (SEC) =          0

               CONVERGENCE CHECKS FOR EQUILIBRIUM ITERATION     4

   MAX. PENETRATION ERROR 557.025E-06   AT NODE PLATE-1.15 OF CONTACT PAIR 
   (ASSEMBLY_S_SURF-1,ASSEMBLY_RIGID_PRESS-1_SURF-3)
   MAX. CONTACT FORCE ERROR 28.1095      AT NODE PLATE-1.15 OF CONTACT PAIR 
   (ASSEMBLY_S_SURF-1,ASSEMBLY_RIGID_PRESS-1_SURF-3)
          THE CONTACT CONSTRAINTS HAVE CONVERGED.

 AVERAGE FORCE                      2.372E+06   TIME AVG. FORCE       1.591E+06
 LARGEST RESIDUAL FORCE             2.389E+03   AT NODE         15   DOF  2
   INSTANCE: PLATE-1                                                                         
 LARGEST INCREMENT OF DISP.          1.10       AT NODE         74   DOF  1
   INSTANCE: PLATE-1                                                                         
 LARGEST CORRECTION TO DISP.        4.167E-03   AT NODE         66   DOF  1
   INSTANCE: PLATE-1                                                                         
          THE FORCE     EQUILIBRIUM EQUATIONS HAVE CONVERGED

 AVERAGE MOMENT                     1.704E+09   TIME AVG. MOMENT      1.211E+09
 ALL MOMENT    RESIDUALS ARE ZERO
 LARGEST INCREMENT OF ROTATION     -7.161E-34   AT NODE          1   DOF  6
   INSTANCE: RIGID_PRESS-1                                                                   
 LARGEST CORRECTION TO ROTATION     6.588E-36   AT NODE          1   DOF  6
   INSTANCE: RIGID_PRESS-1                                                                   
          THE MOMENT    EQUILIBRIUM EQUATIONS HAVE CONVERGED

 ITERATION SUMMARY FOR THE INCREMENT:   4 TOTAL ITERATIONS, OF WHICH
   0 ARE SEVERE DISCONTINUITY ITERATIONS AND  4 ARE EQUILIBRIUM ITERATIONS.

 TIME INCREMENT COMPLETED  3.125E-03,  FRACTION OF STEP COMPLETED  0.906    
 STEP TIME COMPLETED       9.063E-02,  TOTAL TIME COMPLETED        9.063E-02


  INCREMENT     5 STARTS. ATTEMPT NUMBER  1, TIME INCREMENT  3.125E-03

  NUMBER OF EQUATIONS =       687     NUMBER OF FLOATING PT. OPERATIONS =  3.81E+05

     CHECK POINT   START OF SOLVER    

     CHECK POINT  END OF SOLVER       

       ELAPSED USER TIME (SEC)      =   0.0000    
       ELAPSED SYSTEM TIME (SEC)    =  1.00000E-02
       ELAPSED TOTAL CPU TIME (SEC) =  1.00000E-02
       ELAPSED WALLCLOCK TIME (SEC) =          0

               CONVERGENCE CHECKS FOR EQUILIBRIUM ITERATION     1

   MAX. PENETRATION ERROR 1.67665E-03 AT NODE PLATE-1.15 OF CONTACT PAIR 
   (ASSEMBLY_S_SURF-1,ASSEMBLY_RIGID_PRESS-1_SURF-3)
   MAX. CONTACT FORCE ERROR 85.1906      AT NODE PLATE-1.15 OF CONTACT PAIR 
   (ASSEMBLY_S_SURF-1,ASSEMBLY_RIGID_PRESS-1_SURF-3)
          THE CONTACT CONSTRAINTS HAVE CONVERGED.

 AVERAGE FORCE                      2.458E+06   TIME AVG. FORCE       1.764E+06
 LARGEST RESIDUAL FORCE            -1.857E+06   AT NODE        122   DOF  2
   INSTANCE: PLATE-1                                                                         
 LARGEST INCREMENT OF DISP.          1.06       AT NODE        122   DOF  1
   INSTANCE: PLATE-1                                                                         
 LARGEST CORRECTION TO DISP.        0.114       AT NODE         15   DOF  2
   INSTANCE: PLATE-1                                                                         
          FORCE     EQUILIBRIUM NOT ACHIEVED WITHIN TOLERANCE.

 AVERAGE MOMENT                     1.680E+09   TIME AVG. MOMENT      1.304E+09
 ALL MOMENT    RESIDUALS ARE ZERO
 LARGEST INCREMENT OF ROTATION     -4.883E-34   AT NODE          1   DOF  6
   INSTANCE: RIGID_PRESS-1                                                                   
 LARGEST CORRECTION TO ROTATION     2.277E-34   AT NODE          1   DOF  6
   INSTANCE: RIGID_PRESS-1                                                                   
          THE MOMENT    EQUILIBRIUM RESPONSE WAS LINEAR IN THIS INCREMENT

  NUMBER OF EQUATIONS =       687     NUMBER OF FLOATING PT. OPERATIONS =  3.81E+05

     CHECK POINT   START OF SOLVER    

     CHECK POINT  END OF SOLVER       

       ELAPSED USER TIME (SEC)      =  1.00000E-02
       ELAPSED SYSTEM TIME (SEC)    =   0.0000    
       ELAPSED TOTAL CPU TIME (SEC) =  1.00000E-02
       ELAPSED WALLCLOCK TIME (SEC) =          0

               CONVERGENCE CHECKS FOR EQUILIBRIUM ITERATION     2

   MAX. PENETRATION ERROR -3.20023E-03 AT NODE PLATE-1.122 OF CONTACT PAIR 
   (ASSEMBLY_S_SURF-1,ASSEMBLY_RIGID_PRESS-1_SURF-3)
   MAX. CONTACT FORCE ERROR -162.519       AT NODE PLATE-1.15 OF CONTACT PAIR 
   (ASSEMBLY_S_SURF-1,ASSEMBLY_RIGID_PRESS-1_SURF-3)
          THE CONTACT CONSTRAINTS HAVE CONVERGED.

 AVERAGE FORCE                      2.472E+06   TIME AVG. FORCE       1.767E+06
 LARGEST RESIDUAL FORCE            -6.742E+04   AT NODE        144   DOF  2
   INSTANCE: PLATE-1                                                                         
 LARGEST INCREMENT OF DISP.          1.03       AT NODE        122   DOF  1
   INSTANCE: PLATE-1                                                                         
 LARGEST CORRECTION TO DISP.       -3.046E-02   AT NODE        122   DOF  1
   INSTANCE: PLATE-1                                                                         
          FORCE     EQUILIBRIUM NOT ACHIEVED WITHIN TOLERANCE.

 AVERAGE MOMENT                     1.679E+09   TIME AVG. MOMENT      1.304E+09
 ALL MOMENT    RESIDUALS ARE ZERO
 LARGEST INCREMENT OF ROTATION     -4.952E-34   AT NODE          1   DOF  6
   INSTANCE: RIGID_PRESS-1                                                                   
 LARGEST CORRECTION TO ROTATION    -6.817E-36   AT NODE          1   DOF  6
   INSTANCE: RIGID_PRESS-1                                                                   
          THE MOMENT    EQUILIBRIUM EQUATIONS HAVE CONVERGED

  NUMBER OF EQUATIONS =       687     NUMBER OF FLOATING PT. OPERATIONS =  3.81E+05

     CHECK POINT   START OF SOLVER    

     CHECK POINT  END OF SOLVER       

       ELAPSED USER TIME (SEC)      =  1.00000E-02
       ELAPSED SYSTEM TIME (SEC)    =   0.0000    
       ELAPSED TOTAL CPU TIME (SEC) =  1.00000E-02
       ELAPSED WALLCLOCK TIME (SEC) =          0

               CONVERGENCE CHECKS FOR EQUILIBRIUM ITERATION     3

   MAX. PENETRATION ERROR 851.715E-06   AT NODE PLATE-1.15 OF CONTACT PAIR 
   (ASSEMBLY_S_SURF-1,ASSEMBLY_RIGID_PRESS-1_SURF-3)
   MAX. CONTACT FORCE ERROR 43.2600      AT NODE PLATE-1.15 OF CONTACT PAIR 
   (ASSEMBLY_S_SURF-1,ASSEMBLY_RIGID_PRESS-1_SURF-3)
          THE CONTACT CONSTRAINTS HAVE CONVERGED.

 AVERAGE FORCE                      2.480E+06   TIME AVG. FORCE       1.769E+06
 LARGEST RESIDUAL FORCE            -1.007E+04   AT NODE        122   DOF  2
   INSTANCE: PLATE-1                                                                         
 LARGEST INCREMENT OF DISP.          1.03       AT NODE        122   DOF  1
   INSTANCE: PLATE-1                                                                         
 LARGEST CORRECTION TO DISP.       -8.339E-03   AT NODE         15   DOF  1
   INSTANCE: PLATE-1                                                                         
          FORCE     EQUILIBRIUM NOT ACHIEVED WITHIN TOLERANCE.

 AVERAGE MOMENT                     1.679E+09   TIME AVG. MOMENT      1.304E+09
 ALL MOMENT    RESIDUALS ARE ZERO
 LARGEST INCREMENT OF ROTATION     -4.996E-34   AT NODE          1   DOF  6
   INSTANCE: RIGID_PRESS-1                                                                   
 LARGEST CORRECTION TO ROTATION    -4.424E-36   AT NODE          1   DOF  6
   INSTANCE: RIGID_PRESS-1                                                                   
          THE MOMENT    EQUILIBRIUM EQUATIONS HAVE CONVERGED

  NUMBER OF EQUATIONS =       687     NUMBER OF FLOATING PT. OPERATIONS =  3.81E+05

     CHECK POINT   START OF SOLVER    

     CHECK POINT  END OF SOLVER       

       ELAPSED USER TIME (SEC)      =  1.00000E-02
       ELAPSED SYSTEM TIME (SEC)    =   0.0000    
       ELAPSED TOTAL CPU TIME (SEC) =  1.00000E-02
       ELAPSED WALLCLOCK TIME (SEC) =          0

               CONVERGENCE CHECKS FOR EQUILIBRIUM ITERATION     4

   MAX. PENETRATION ERROR -84.1133E-06  AT NODE PLATE-1.122 OF CONTACT PAIR 
   (ASSEMBLY_S_SURF-1,ASSEMBLY_RIGID_PRESS-1_SURF-3)
   MAX. CONTACT FORCE ERROR -4.27214     AT NODE PLATE-1.122 OF CONTACT PAIR 
   (ASSEMBLY_S_SURF-1,ASSEMBLY_RIGID_PRESS-1_SURF-3)
          THE CONTACT CONSTRAINTS HAVE CONVERGED.

 AVERAGE FORCE                      2.480E+06   TIME AVG. FORCE       1.769E+06
 LARGEST RESIDUAL FORCE            -1.543E+03   AT NODE        125   DOF  2
   INSTANCE: PLATE-1                                                                         
 LARGEST INCREMENT OF DISP.          1.03       AT NODE        122   DOF  1
   INSTANCE: PLATE-1                                                                         
[...]
 LARGEST CORRECTION TO DISP.        1.035E-02   AT NODE         63   DOF  1
   INSTANCE: PLATE-1                                                                         
          FORCE     EQUILIBRIUM NOT ACHIEVED WITHIN TOLERANCE.

 AVERAGE MOMENT                     1.781E+09   TIME AVG. MOMENT      1.440E+09
 ALL MOMENT    RESIDUALS ARE ZERO
 LARGEST INCREMENT OF ROTATION      3.197E-34   AT NODE          1   DOF  6
   INSTANCE: RIGID_PRESS-1                                                                   
 LARGEST CORRECTION TO ROTATION     3.895E-34   AT NODE          1   DOF  6
   INSTANCE: RIGID_PRESS-1                                                                   
          THE MOMENT    EQUILIBRIUM EQUATIONS HAVE CONVERGED

  NUMBER OF EQUATIONS =       687     NUMBER OF FLOATING PT. OPERATIONS =  3.81E+05

     CHECK POINT   START OF SOLVER    

     CHECK POINT  END OF SOLVER       

       ELAPSED USER TIME (SEC)      =  1.00000E-02
       ELAPSED SYSTEM TIME (SEC)    =   0.0000    
       ELAPSED TOTAL CPU TIME (SEC) =  1.00000E-02
       ELAPSED WALLCLOCK TIME (SEC) =          0

               CONVERGENCE CHECKS FOR EQUILIBRIUM ITERATION     4

   MAX. PENETRATION ERROR -716.382E-06   AT NODE PLATE-1.15 OF CONTACT PAIR 
   (ASSEMBLY_S_SURF-1,ASSEMBLY_RIGID_PRESS-1_SURF-3)
   MAX. CONTACT FORCE ERROR -36.9133      AT NODE PLATE-1.15 OF CONTACT PAIR 
   (ASSEMBLY_S_SURF-1,ASSEMBLY_RIGID_PRESS-1_SURF-3)
          THE CONTACT CONSTRAINTS HAVE CONVERGED.

 AVERAGE FORCE                      2.611E+06   TIME AVG. FORCE       2.005E+06
 LARGEST RESIDUAL FORCE             1.372E+04   AT NODE         15   DOF  2
   INSTANCE: PLATE-1                                                                         
 LARGEST INCREMENT OF DISP.         0.317       AT NODE        122   DOF  1
   INSTANCE: PLATE-1                                                                         
 LARGEST CORRECTION TO DISP.       -5.678E-03   AT NODE         63   DOF  1
   INSTANCE: PLATE-1                                                                         
          FORCE     EQUILIBRIUM NOT ACHIEVED WITHIN TOLERANCE.

 AVERAGE MOMENT                     1.780E+09   TIME AVG. MOMENT      1.440E+09
 ALL MOMENT    RESIDUALS ARE ZERO
 LARGEST INCREMENT OF ROTATION      5.808E-35   AT NODE          1   DOF  6
   INSTANCE: RIGID_PRESS-1                                                                   
 LARGEST CORRECTION TO ROTATION    -2.616E-34   AT NODE          1   DOF  6
   INSTANCE: RIGID_PRESS-1                                                                   
          THE MOMENT    EQUILIBRIUM EQUATIONS HAVE CONVERGED

  NUMBER OF EQUATIONS =       687     NUMBER OF FLOATING PT. OPERATIONS =  3.81E+05

     CHECK POINT   START OF SOLVER    

     CHECK POINT  END OF SOLVER       

       ELAPSED USER TIME (SEC)      =   0.0000    
       ELAPSED SYSTEM TIME (SEC)    =   0.0000    
       ELAPSED TOTAL CPU TIME (SEC) =   0.0000    
       ELAPSED WALLCLOCK TIME (SEC) =          0

               CONVERGENCE CHECKS FOR EQUILIBRIUM ITERATION     5

   MAX. PENETRATION ERROR 381.164E-06   AT NODE PLATE-1.15 OF CONTACT PAIR 
   (ASSEMBLY_S_SURF-1,ASSEMBLY_RIGID_PRESS-1_SURF-3)
   MAX. CONTACT FORCE ERROR 19.6399      AT NODE PLATE-1.15 OF CONTACT PAIR 
   (ASSEMBLY_S_SURF-1,ASSEMBLY_RIGID_PRESS-1_SURF-3)
          THE CONTACT CONSTRAINTS HAVE CONVERGED.

 AVERAGE FORCE                      2.610E+06   TIME AVG. FORCE       2.005E+06
 LARGEST RESIDUAL FORCE            -7.485E+03   AT NODE         15   DOF  2
   INSTANCE: PLATE-1                                                                         
 LARGEST INCREMENT OF DISP.         0.314       AT NODE        122   DOF  1
   INSTANCE: PLATE-1                                                                         
 LARGEST CORRECTION TO DISP.        3.051E-03   AT NODE         63   DOF  1
   INSTANCE: PLATE-1                                                                         
          THE FORCE     EQUILIBRIUM EQUATIONS HAVE CONVERGED

 AVERAGE MOMENT                     1.781E+09   TIME AVG. MOMENT      1.440E+09
 ALL MOMENT    RESIDUALS ARE ZERO
 LARGEST INCREMENT OF ROTATION      2.263E-34   AT NODE          1   DOF  6
   INSTANCE: RIGID_PRESS-1                                                                   
 LARGEST CORRECTION TO ROTATION     1.682E-34   AT NODE          1   DOF  6
   INSTANCE: RIGID_PRESS-1                                                                   
          THE MOMENT    EQUILIBRIUM EQUATIONS HAVE CONVERGED

 ITERATION SUMMARY FOR THE INCREMENT:   5 TOTAL ITERATIONS, OF WHICH
   0 ARE SEVERE DISCONTINUITY ITERATIONS AND  5 ARE EQUILIBRIUM ITERATIONS.

 TIME INCREMENT COMPLETED  7.812E-04,  FRACTION OF STEP COMPLETED  0.992    
 STEP TIME COMPLETED       9.922E-02,  TOTAL TIME COMPLETED        9.922E-02


  INCREMENT     8 STARTS. ATTEMPT NUMBER  1, TIME INCREMENT  7.812E-04

  NUMBER OF EQUATIONS =       687     NUMBER OF FLOATING PT. OPERATIONS =  3.81E+05

     CHECK POINT   START OF SOLVER    

     CHECK POINT  END OF SOLVER       

       ELAPSED USER TIME (SEC)      =  1.00000E-02
       ELAPSED SYSTEM TIME (SEC)    =   0.0000    
       ELAPSED TOTAL CPU TIME (SEC) =  1.00000E-02
       ELAPSED WALLCLOCK TIME (SEC) =          0

               CONVERGENCE CHECKS FOR EQUILIBRIUM ITERATION     1

   MAX. PENETRATION ERROR -70.2924E-03  AT NODE PLATE-1.15 OF CONTACT PAIR 
   (ASSEMBLY_S_SURF-1,ASSEMBLY_RIGID_PRESS-1_SURF-3)
   MAX. CONTACT FORCE ERROR -3.62152E+03 AT NODE PLATE-1.15 OF CONTACT PAIR 
   (ASSEMBLY_S_SURF-1,ASSEMBLY_RIGID_PRESS-1_SURF-3)
          PENETRATION ERROR TOO LARGE COMPARED TO DISPLACEMENT INCREMENT.

 AVERAGE FORCE                      2.606E+06   TIME AVG. FORCE       2.080E+06
 LARGEST RESIDUAL FORCE            -1.791E+06   AT NODE        122   DOF  2
   INSTANCE: PLATE-1                                                                         
 LARGEST INCREMENT OF DISP.        -0.195       AT NODE          1   DOF  2
   INSTANCE: RIGID_PRESS-1                                                                   
 LARGEST CORRECTION TO DISP.       -0.246       AT NODE         74   DOF  1
   INSTANCE: PLATE-1                                                                         
          FORCE     EQUILIBRIUM NOT ACHIEVED WITHIN TOLERANCE.

 AVERAGE MOMENT                     1.786E+09   TIME AVG. MOMENT      1.483E+09
 ALL MOMENT    RESIDUALS ARE ZERO
 LARGEST INCREMENT OF ROTATION      3.403E-34   AT NODE          1   DOF  6
   INSTANCE: RIGID_PRESS-1                                                                   
 LARGEST CORRECTION TO ROTATION     1.141E-34   AT NODE          1   DOF  6
   INSTANCE: RIGID_PRESS-1                                                                   
          THE MOMENT    EQUILIBRIUM RESPONSE WAS LINEAR IN THIS INCREMENT

  NUMBER OF EQUATIONS =       687     NUMBER OF FLOATING PT. OPERATIONS =  3.81E+05

     CHECK POINT   START OF SOLVER    

     CHECK POINT  END OF SOLVER       

       ELAPSED USER TIME (SEC)      =  1.00000E-02
       ELAPSED SYSTEM TIME (SEC)    =   0.0000    
       ELAPSED TOTAL CPU TIME (SEC) =  1.00000E-02
       ELAPSED WALLCLOCK TIME (SEC) =          0

               CONVERGENCE CHECKS FOR EQUILIBRIUM ITERATION     2

   MAX. PENETRATION ERROR 4.33347E-03 AT NODE PLATE-1.15 OF CONTACT PAIR 
   (ASSEMBLY_S_SURF-1,ASSEMBLY_RIGID_PRESS-1_SURF-3)
   MAX. CONTACT FORCE ERROR 385.983       AT NODE PLATE-1.123 OF CONTACT PAIR 
   (ASSEMBLY_S_SURF-1,ASSEMBLY_RIGID_PRESS-1_SURF-3)
          PENETRATION ERROR TOO LARGE COMPARED TO DISPLACEMENT INCREMENT.

 AVERAGE FORCE                      2.629E+06   TIME AVG. FORCE       2.083E+06
 LARGEST RESIDUAL FORCE             2.855E+05   AT NODE         15   DOF  2
   INSTANCE: PLATE-1                                                                         
 LARGEST INCREMENT OF DISP.        -0.195       AT NODE          1   DOF  2
   INSTANCE: RIGID_PRESS-1                                                                   
 LARGEST CORRECTION TO DISP.        9.120E-02   AT NODE         74   DOF  1
   INSTANCE: PLATE-1                                                                         
          FORCE     EQUILIBRIUM NOT ACHIEVED WITHIN TOLERANCE.

 AVERAGE MOMENT                     1.770E+09   TIME AVG. MOMENT      1.481E+09
 ALL MOMENT    RESIDUALS ARE ZERO
 LARGEST INCREMENT OF ROTATION      6.626E-34   AT NODE          1   DOF  6
   INSTANCE: RIGID_PRESS-1                                                                   
 LARGEST CORRECTION TO ROTATION     3.223E-34   AT NODE          1   DOF  6
   INSTANCE: RIGID_PRESS-1                                                                   
          THE MOMENT    EQUILIBRIUM EQUATIONS HAVE CONVERGED

  NUMBER OF EQUATIONS =       687     NUMBER OF FLOATING PT. OPERATIONS =  3.81E+05

     CHECK POINT   START OF SOLVER    

     CHECK POINT  END OF SOLVER       

       ELAPSED USER TIME (SEC)      =  1.00000E-02
       ELAPSED SYSTEM TIME (SEC)    =   0.0000    
       ELAPSED TOTAL CPU TIME (SEC) =  1.00000E-02
       ELAPSED WALLCLOCK TIME (SEC) =          0

               CONVERGENCE CHECKS FOR EQUILIBRIUM ITERATION     3

   MAX. PENETRATION ERROR 10.6450E-03  AT NODE PLATE-1.15 OF CONTACT PAIR 
   (ASSEMBLY_S_SURF-1,ASSEMBLY_RIGID_PRESS-1_SURF-3)
   MAX. CONTACT FORCE ERROR 548.874       AT NODE PLATE-1.15 OF CONTACT PAIR 
   (ASSEMBLY_S_SURF-1,ASSEMBLY_RIGID_PRESS-1_SURF-3)
          PENETRATION ERROR TOO LARGE COMPARED TO DISPLACEMENT INCREMENT.

 AVERAGE FORCE                      2.641E+06   TIME AVG. FORCE       2.085E+06
 LARGEST RESIDUAL FORCE             2.754E+05   AT NODE         15   DOF  2
   INSTANCE: PLATE-1                                                                         
 LARGEST INCREMENT OF DISP.         0.208       AT NODE        250   DOF  1
   INSTANCE: PLATE-1                                                                         
 LARGEST CORRECTION TO DISP.        4.726E-02   AT NODE        122   DOF  1
   INSTANCE: PLATE-1                                                                         
          FORCE     EQUILIBRIUM NOT ACHIEVED WITHIN TOLERANCE.

 AVERAGE MOMENT                     1.756E+09   TIME AVG. MOMENT      1.479E+09
 ALL MOMENT    RESIDUALS ARE ZERO
 LARGEST INCREMENT OF ROTATION      7.665E-34   AT NODE          1   DOF  6
   INSTANCE: RIGID_PRESS-1                                                                   
 LARGEST CORRECTION TO ROTATION     1.039E-34   AT NODE          1   DOF  6
   INSTANCE: RIGID_PRESS-1                                                                   
          THE MOMENT    EQUILIBRIUM EQUATIONS HAVE CONVERGED

  NUMBER OF EQUATIONS =       687     NUMBER OF FLOATING PT. OPERATIONS =  3.81E+05

     CHECK POINT   START OF SOLVER    

     CHECK POINT  END OF SOLVER       

       ELAPSED USER TIME (SEC)      =   0.0000    
       ELAPSED SYSTEM TIME (SEC)    =   0.0000    
       ELAPSED TOTAL CPU TIME (SEC) =   0.0000    
       ELAPSED WALLCLOCK TIME (SEC) =          0

               CONVERGENCE CHECKS FOR EQUILIBRIUM ITERATION     4

   MAX. PENETRATION ERROR 1.05698E-03 AT NODE PLATE-1.122 OF CONTACT PAIR 
   (ASSEMBLY_S_SURF-1,ASSEMBLY_RIGID_PRESS-1_SURF-3)
   MAX. CONTACT FORCE ERROR 54.5143      AT NODE PLATE-1.122 OF CONTACT PAIR 
   (ASSEMBLY_S_SURF-1,ASSEMBLY_RIGID_PRESS-1_SURF-3)
          PENETRATION ERROR TOO LARGE COMPARED TO DISPLACEMENT INCREMENT.

 AVERAGE FORCE                      2.642E+06   TIME AVG. FORCE       2.085E+06
 LARGEST RESIDUAL FORCE             3.264E+04   AT NODE        122   DOF  2
   INSTANCE: PLATE-1                                                                         
 LARGEST INCREMENT OF DISP.         0.204       AT NODE         72   DOF  1
   INSTANCE: PLATE-1                                                                         
 LARGEST CORRECTION TO DISP.        1.643E-02   AT NODE         67   DOF  1
   INSTANCE: PLATE-1                                                                         
          FORCE     EQUILIBRIUM NOT ACHIEVED WITHIN TOLERANCE.

 AVERAGE MOMENT                     1.754E+09   TIME AVG. MOMENT      1.479E+09
 ALL MOMENT    RESIDUALS ARE ZERO
 LARGEST INCREMENT OF ROTATION      7.810E-34   AT NODE          1   DOF  6
   INSTANCE: RIGID_PRESS-1                                                                   
 LARGEST CORRECTION TO ROTATION     1.448E-35   AT NODE          1   DOF  6
   INSTANCE: RIGID_PRESS-1                                                                   
          THE MOMENT    EQUILIBRIUM EQUATIONS HAVE CONVERGED

  NUMBER OF EQUATIONS =       687     NUMBER OF FLOATING PT. OPERATIONS =  3.81E+05

     CHECK POINT   START OF SOLVER    

     CHECK POINT  END OF SOLVER       

       ELAPSED USER TIME (SEC)      =   0.0000    
       ELAPSED SYSTEM TIME (SEC)    =   0.0000    
       ELAPSED TOTAL CPU TIME (SEC) =   0.0000    
       ELAPSED WALLCLOCK TIME (SEC) =          0

               CONVERGENCE CHECKS FOR EQUILIBRIUM ITERATION     5

   MAX. PENETRATION ERROR -681.634E-06   AT NODE PLATE-1.122 OF CONTACT PAIR 
   (ASSEMBLY_S_SURF-1,ASSEMBLY_RIGID_PRESS-1_SURF-3)
   MAX. CONTACT FORCE ERROR -35.1546      AT NODE PLATE-1.122 OF CONTACT PAIR 
   (ASSEMBLY_S_SURF-1,ASSEMBLY_RIGID_PRESS-1_SURF-3)
          THE CONTACT CONSTRAINTS HAVE CONVERGED.

 AVERAGE FORCE                      2.641E+06   TIME AVG. FORCE       2.085E+06
 LARGEST RESIDUAL FORCE            -1.602E+04   AT NODE        122   DOF  2
   INSTANCE: PLATE-1                                                                         
 LARGEST INCREMENT OF DISP.         0.202       AT NODE         72   DOF  1
   INSTANCE: PLATE-1                                                                         
 LARGEST CORRECTION TO DISP.       -2.453E-03   AT NODE        258   DOF  1
   INSTANCE: PLATE-1                                                                         
          FORCE     EQUILIBRIUM NOT ACHIEVED WITHIN TOLERANCE.

 AVERAGE MOMENT                     1.755E+09   TIME AVG. MOMENT      1.479E+09
 ALL MOMENT    RESIDUALS ARE ZERO
 LARGEST INCREMENT OF ROTATION      6.655E-34   AT NODE          1   DOF  6
   INSTANCE: RIGID_PRESS-1                                                                   
 LARGEST CORRECTION TO ROTATION    -1.155E-34   AT NODE          1   DOF  6
   INSTANCE: RIGID_PRESS-1                                                                   
          THE MOMENT    EQUILIBRIUM EQUATIONS HAVE CONVERGED

  NUMBER OF EQUATIONS =       687     NUMBER OF FLOATING PT. OPERATIONS =  3.81E+05

     CHECK POINT   START OF SOLVER    

     CHECK POINT  END OF SOLVER       

       ELAPSED USER TIME (SEC)      =   0.0000    
       ELAPSED SYSTEM TIME (SEC)    =   0.0000    
       ELAPSED TOTAL CPU TIME (SEC) =   0.0000    
       ELAPSED WALLCLOCK TIME (SEC) =          0

               CONVERGENCE CHECKS FOR EQUILIBRIUM ITERATION     6

   MAX. PENETRATION ERROR 519.727E-06   AT NODE PLATE-1.122 OF CONTACT PAIR 
   (ASSEMBLY_S_SURF-1,ASSEMBLY_RIGID_PRESS-1_SURF-3)
   MAX. CONTACT FORCE ERROR 26.8048      AT NODE PLATE-1.122 OF CONTACT PAIR 
   (ASSEMBLY_S_SURF-1,ASSEMBLY_RIGID_PRESS-1_SURF-3)
          THE CONTACT CONSTRAINTS HAVE CONVERGED.

 AVERAGE FORCE                      2.641E+06   TIME AVG. FORCE       2.085E+06
 LARGEST RESIDUAL FORCE             1.216E+04   AT NODE        122   DOF  2
   INSTANCE: PLATE-1                                                                         
 LARGEST INCREMENT OF DISP.         0.204       AT NODE         72   DOF  1
   INSTANCE: PLATE-1                                                                         
 LARGEST CORRECTION TO DISP.        2.024E-03   AT NODE        122   DOF  1
   INSTANCE: PLATE-1                                                                         
          FORCE     EQUILIBRIUM NOT ACHIEVED WITHIN TOLERANCE.

 AVERAGE MOMENT                     1.755E+09   TIME AVG. MOMENT      1.479E+09
 ALL MOMENT    RESIDUALS ARE ZERO
 LARGEST INCREMENT OF ROTATION      7.252E-34   AT NODE          1   DOF  6
   INSTANCE: RIGID_PRESS-1                                                                   
 LARGEST CORRECTION TO ROTATION     5.973E-35   AT NODE          1   DOF  6
   INSTANCE: RIGID_PRESS-1                                                                   
          THE MOMENT    EQUILIBRIUM EQUATIONS HAVE CONVERGED

  NUMBER OF EQUATIONS =       687     NUMBER OF FLOATING PT. OPERATIONS =  3.81E+05

     CHECK POINT   START OF SOLVER    

     CHECK POINT  END OF SOLVER       

       ELAPSED USER TIME (SEC)      =   0.0000    
       ELAPSED SYSTEM TIME (SEC)    =   0.0000    
       ELAPSED TOTAL CPU TIME (SEC) =   0.0000    
       ELAPSED WALLCLOCK TIME (SEC) =          0

               CONVERGENCE CHECKS FOR EQUILIBRIUM ITERATION     7

   MAX. PENETRATION ERROR -386.089E-06   AT NODE PLATE-1.122 OF CONTACT PAIR 
   (ASSEMBLY_S_SURF-1,ASSEMBLY_RIGID_PRESS-1_SURF-3)
   MAX. CONTACT FORCE ERROR -19.9123      AT NODE PLATE-1.122 OF CONTACT PAIR 
   (ASSEMBLY_S_SURF-1,ASSEMBLY_RIGID_PRESS-1_SURF-3)
          THE CONTACT CONSTRAINTS HAVE CONVERGED.

 AVERAGE FORCE                      2.641E+06   TIME AVG. FORCE       2.085E+06
 LARGEST RESIDUAL FORCE            -8.997E+03   AT NODE        122   DOF  2
   INSTANCE: PLATE-1                                                                         
 LARGEST INCREMENT OF DISP.         0.203       AT NODE         72   DOF  1
   INSTANCE: PLATE-1                                                                         
 LARGEST CORRECTION TO DISP.       -1.525E-03   AT NODE        122   DOF  1
   INSTANCE: PLATE-1                                                                         
          THE FORCE     EQUILIBRIUM EQUATIONS HAVE CONVERGED

 AVERAGE MOMENT                     1.755E+09   TIME AVG. MOMENT      1.479E+09
 ALL MOMENT    RESIDUALS ARE ZERO
 LARGEST INCREMENT OF ROTATION      6.772E-34   AT NODE          1   DOF  6
   INSTANCE: RIGID_PRESS-1                                                                   
 LARGEST CORRECTION TO ROTATION    -4.803E-35   AT NODE          1   DOF  6
   INSTANCE: RIGID_PRESS-1                                                                   
          THE MOMENT    EQUILIBRIUM EQUATIONS HAVE CONVERGED

 ITERATION SUMMARY FOR THE INCREMENT:   7 TOTAL ITERATIONS, OF WHICH
   0 ARE SEVERE DISCONTINUITY ITERATIONS AND  7 ARE EQUILIBRIUM ITERATIONS.

 TIME INCREMENT COMPLETED  7.812E-04,  FRACTION OF STEP COMPLETED   1.00    
 STEP TIME COMPLETED       0.100    ,  TOTAL TIME COMPLETED        0.100    


          THE ANALYSIS HAS BEEN COMPLETED



     ANALYSIS SUMMARY:
     TOTAL OF          8  INCREMENTS
                       3  CUTBACKS IN AUTOMATIC INCREMENTATION
                      61  ITERATIONS INCLUDING CONTACT ITERATIONS IF PRESENT
                      61  PASSES THROUGH THE EQUATION SOLVER OF WHICH 
                      61  INVOLVE MATRIX DECOMPOSITION, INCLUDING
                       0  DECOMPOSITION(S) OF THE MASS MATRIX
                       1  REORDERING OF EQUATIONS TO MINIMIZE WAVEFRONT
                       0  ADDITIONAL RESIDUAL EVALUATIONS FOR LINE SEARCHES
                       0  ADDITIONAL OPERATOR EVALUATIONS FOR LINE SEARCHES
                       2  WARNING MESSAGES DURING USER INPUT PROCESSING
                       6  WARNING MESSAGES DURING ANALYSIS
                       0  ANALYSIS WARNINGS ARE NUMERICAL PROBLEM MESSAGES
                       0  ANALYSIS WARNINGS ARE NEGATIVE EIGENVALUE MESSAGES
                       0  ERROR MESSAGES



     JOB TIME SUMMARY
       USER TIME (SEC)      =   3.2700    
       SYSTEM TIME (SEC)    =  0.69000    
       TOTAL CPU TIME (SEC) =   3.9600    
       WALLCLOCK TIME (SEC) =          5
