 Abaqus/Standard 3DEXPERIENCE R2016x                  DATE 30-Apr-2018 TIME 23:23:22
 SUMMARY OF JOB INFORMATION:
 STEP  INC ATT SEVERE EQUIL TOTAL  TOTAL      STEP       INC OF       DOF    IF
               DISCON ITERS ITERS  TIME/    TIME/LPF    TIME/LPF    MONITOR RIKS
               ITERS               FREQ
   1     1   1U    1     6     7  0.00       0.00       0.1000    
   1     1   2     1     2     3  0.0250     0.0250     0.02500   
   1     2   1     0     2     2  0.0500     0.0500     0.02500   
   1     3   1     0    13    13  0.0875     0.0875     0.03750   
   1     4   1U    0     4     4  0.0875     0.0875     0.01250   
   1     4   2     0     4     4  0.0906     0.0906     0.003125  
   1     5   1     0     4     4  0.0938     0.0938     0.003125  
   1     6   1     0     3     3  0.0984     0.0984     0.004687  
   1     7   1U    0     9     9  0.0984     0.0984     0.001562  
   1     7   2     0     5     5  0.0992     0.0992     0.0007812 
   1     8   1     0     7     7  0.100      0.100      0.0007812 
                          
 THE ANALYSIS HAS COMPLETED SUCCESSFULLY
