 Abaqus/Standard 3DEXPERIENCE R2016x                  DATE 26-Apr-2018 TIME 20:16:14
 SUMMARY OF JOB INFORMATION:
 STEP  INC ATT SEVERE EQUIL TOTAL  TOTAL      STEP       INC OF       DOF    IF
               DISCON ITERS ITERS  TIME/    TIME/LPF    TIME/LPF    MONITOR RIKS
               ITERS               FREQ
   1     1   1     0     2     2  0.00100    0.00100    0.001000  
   1     2   1     0     1     1  0.00200    0.00200    0.001000  
   1     3   1     0     1     1  0.00350    0.00350    0.001500  
   1     4   1     0     1     1  0.00575    0.00575    0.002250  
   1     5   1     0     1     1  0.00913    0.00913    0.003375  
   1     6   1     0     1     1  0.0142     0.0142     0.005063  
   1     7   1     0     1     1  0.0218     0.0218     0.007594  
   1     8   1     0     1     1  0.0332     0.0332     0.01139   
   1     9   1     0     1     1  0.0503     0.0503     0.01709   
   1    10   1     0     1     1  0.0759     0.0759     0.02563   
   1    11   1     0     1     1  0.114      0.114      0.03844   
   1    12   1     0     1     1  0.172      0.172      0.05767   
   1    13   1     0     1     1  0.258      0.258      0.08650   
   1    14   1     0     1     1  0.388      0.388      0.1297    
   1    15   1     0     1     1  0.583      0.583      0.1946    
   1    16   1     0     1     1  0.875      0.875      0.2919    
   1    17   1     0     1     1  1.31       1.31       0.4379    
   1    18   1     0     1     1  1.97       1.97       0.6568    
   1    19   1     0     1     1  2.95       2.95       0.9853    
   1    20   1     0     1     1  4.43       4.43       1.478     
   1    21   1     0     1     1  6.65       6.65       2.217     
   1    22   1U    0     4     4  6.65       6.65       3.325     
   1    22   2     0     1     1  7.48       7.48       0.8313    
   1    23   1     0     2     2  8.73       8.73       1.247     
   1    24   1U    1     3     4  8.73       8.73       1.870     
   1    24   2     0     7     7  9.20       9.20       0.4676    
   1    25   1U    0     4     4  9.20       9.20       0.4676    
   1    25   2     0    10    10  9.31       9.31       0.1169    
   1    26   1U    0     9     9  9.31       9.31       0.1169    
   1    26   2     0     2     2  9.34       9.34       0.02923   
   1    27   1     0     2     2  9.37       9.37       0.02923   
   1    28   1     0     8     8  9.41       9.41       0.04384   
   1    29   1     0     7     7  9.46       9.46       0.04384   
   1    30   1     0     5     5  9.50       9.50       0.04384   
   1    31   1     0     8     8  9.55       9.55       0.04384   
   1    32   1U    0     4     4  9.55       9.55       0.04384   
   1    32   2U    0     5     5  9.55       9.55       0.01096   
   1    32   3U    0     6     6  9.55       9.55       0.002740  
   1    32   4U    0     4     4  9.55       9.55       0.0006850 
   1    32   5U    0     4     4  9.55       9.55       0.0001712 
                          
 THE ANALYSIS HAS NOT BEEN COMPLETED
