1

   Abaqus 3DEXPERIENCE R2016x                                  Date 26-Apr-2018   Time 20:16:13
   For use at UNIVERSITAET BERN under license from Dassault Systemes or its subsidiary.

                                                                                 
                                                                                 
 STEP    1     INCREMENT     1     STEP TIME    0.00    


                        S T E P       1     S T A T I C   A N A L Y S I S


                                                                                          

     AUTOMATIC TIME CONTROL WITH -
          A SUGGESTED INITIAL TIME INCREMENT OF                1.000E-03
          AND A TOTAL TIME PERIOD OF                            50.0    
          THE MINIMUM TIME INCREMENT ALLOWED IS                1.000E-09
          THE MAXIMUM TIME INCREMENT ALLOWED IS                 50.0    

     LINEAR EQUATION SOLVER TYPE         DIRECT SPARSE

 CONVERGENCE TOLERANCE PARAMETERS FOR FORCE    
     CRITERION FOR RESIDUAL FORCE     FOR A NONLINEAR PROBLEM          5.000E-03
     CRITERION FOR DISP.    CORRECTION IN A NONLINEAR PROBLEM          1.000E-02
     INITIAL VALUE OF TIME AVERAGE FORCE                               1.000E-02
     AVERAGE FORCE     IS TIME AVERAGE FORCE    
     ALTERNATE CRIT. FOR RESIDUAL FORCE     FOR A NONLINEAR PROBLEM    2.000E-02
     CRITERION FOR ZERO FORCE     RELATIVE TO TIME AVRG. FORCE         1.000E-05
     CRITERION FOR RESIDUAL FORCE     WHEN THERE IS ZERO FLUX          1.000E-05
     CRITERION FOR DISP.    CORRECTION WHEN THERE IS ZERO FLUX         1.000E-03
     CRITERION FOR RESIDUAL FORCE     FOR A LINEAR INCREMENT           1.000E-08
     FIELD CONVERSION RATIO                                             1.00    
     CRITERION FOR ZERO FORCE     REL. TO TIME AVRG. MAX. FORCE        1.000E-05
     CRITERION FOR ZERO DISP.    RELATIVE TO CHARACTERISTIC LENGTH     1.000E-08

 CONVERGENCE TOLERANCE PARAMETERS FOR MOMENT   
     CRITERION FOR RESIDUAL MOMENT    FOR A NONLINEAR PROBLEM          5.000E-03
     CRITERION FOR ROTATION CORRECTION IN A NONLINEAR PROBLEM          1.000E-02
     INITIAL VALUE OF TIME AVERAGE MOMENT                              1.000E-02
     AVERAGE MOMENT    IS TIME AVERAGE MOMENT   
     ALTERNATE CRIT. FOR RESIDUAL MOMENT    FOR A NONLINEAR PROBLEM    2.000E-02
     CRITERION FOR ZERO MOMENT    RELATIVE TO TIME AVRG. MOMENT        1.000E-05
     CRITERION FOR RESIDUAL MOMENT    WHEN THERE IS ZERO FLUX          1.000E-05
     CRITERION FOR ROTATION CORRECTION WHEN THERE IS ZERO FLUX         1.000E-03
     CRITERION FOR RESIDUAL MOMENT    FOR A LINEAR INCREMENT           1.000E-08
     FIELD CONVERSION RATIO                                             1.00    
     CRITERION FOR ZERO MOMENT    REL. TO TIME AVRG. MAX. MOMENT       1.000E-05

     VOLUMETRIC STRAIN COMPATIBILITY TOLERANCE FOR HYBRID SOLIDS       1.000E-05
     AXIAL STRAIN COMPATIBILITY TOLERANCE FOR HYBRID BEAMS             1.000E-05
     TRANS. SHEAR STRAIN COMPATIBILITY TOLERANCE FOR HYBRID BEAMS      1.000E-05
     SOFT CONTACT CONSTRAINT COMPATIBILITY TOLERANCE FOR P>P0          5.000E-03
     SOFT CONTACT CONSTRAINT COMPATIBILITY TOLERANCE FOR P=0.0         0.100    
     CONTACT FORCE ERROR TOLERANCE FOR CONVERT SDI=YES                 1.00    
     DISPLACEMENT COMPATIBILITY TOLERANCE FOR DCOUP ELEMENTS           1.000E-05
     ROTATION COMPATIBILITY TOLERANCE FOR DCOUP ELEMENTS               1.000E-05

 EQUILIBRIUM WILL BE CHECKED FOR SEVERE DISCONTINUITY ITERATIONS

 TIME INCREMENTATION CONTROL PARAMETERS:
     FIRST EQUILIBRIUM ITERATION FOR CONSECUTIVE DIVERGENCE CHECK              4
     EQUILIBRIUM ITERATION AT WHICH LOG. CONVERGENCE RATE CHECK BEGINS         8
     EQUILIBRIUM ITERATION AFTER WHICH ALTERNATE RESIDUAL IS USED              9
     MAXIMUM EQUILIBRIUM ITERATIONS ALLOWED                                   16
     EQUILIBRIUM ITERATION COUNT FOR CUT-BACK IN NEXT INCREMENT               10
     MAXIMUM EQUILIB. ITERS IN TWO INCREMENTS FOR TIME INCREMENT INCREASE      4
     MAXIMUM ITERATIONS FOR SEVERE DISCONTINUITIES                            50
     MAXIMUM CUT-BACKS ALLOWED IN AN INCREMENT                                 5
     MAXIMUM DISCON. ITERS IN TWO INCREMENTS FOR TIME INCREMENT INCREASE      50
     MAXIMUM CONTACT AUGMENTATIONS FOR *SURFACE BEHAVIOR,AUGMENTED LAGRANGE   50
     CUT-BACK FACTOR AFTER DIVERGENCE                                 0.2500    
     CUT-BACK FACTOR FOR TOO SLOW CONVERGENCE                         0.5000    
     CUT-BACK FACTOR AFTER TOO MANY EQUILIBRIUM ITERATIONS            0.7500    
     CUT-BACK FACTOR AFTER TOO MANY SEVERE DISCONTINUITY ITERATIONS   0.2500    
     CUT-BACK FACTOR AFTER PROBLEMS IN ELEMENT ASSEMBLY               0.2500    
     INCREASE FACTOR AFTER TWO INCREMENTS THAT CONVERGE QUICKLY        1.500    
     MAX. TIME INCREMENT INCREASE FACTOR ALLOWED                       1.500    
     MAX. TIME INCREMENT INCREASE FACTOR ALLOWED (DYNAMICS)            1.250    
     MAX. TIME INCREMENT INCREASE FACTOR ALLOWED (DIFFUSION)           2.000    
     MINIMUM TIME INCREMENT RATIO FOR EXTRAPOLATION TO OCCUR          0.1000    
     MAX. RATIO OF TIME INCREMENT TO STABILITY LIMIT                   1.000    
     FRACTION OF STABILITY LIMIT FOR NEW TIME INCREMENT               0.9500    
     TIME INCREMENT INCREASE FACTOR BEFORE A TIME POINT                1.000    

 CONTACT CONTROLS APPLIED TO ALL CONTACT PAIRS:
     GLOBAL STABILIZATION CONTROL IS NOT USED
     RELATIVE PENETRATION TOLERANCE FOR AUGMENTED LAGRANGE CONTACT:
          FINITE-SLIDING SURFACE-TO-SURFACE                            5.000E-02
          OTHERWISE                                                    1.000E-03

          PRINT OF INCREMENT NUMBER, TIME, ETC., EVERY    1  INCREMENTS

     THE MAXIMUM NUMBER OF INCREMENTS IN THIS STEP IS                     100

          LARGE DISPLACEMENT THEORY WILL BE USED

     LINEAR EXTRAPOLATION WILL BE USED

     CHARACTERISTIC ELEMENT LENGTH      9.38    

     DETAILS REGARDING ACTUAL SOLUTION WAVEFRONT REQUESTED

     DETAILED OUTPUT OF DIAGNOSTICS TO DATABASE REQUESTED

     PRINT OF INCREMENT NUMBER, TIME, ETC., TO THE MESSAGE FILE EVERY     1  INCREMENTS

     COLLECTING MODEL CONSTRAINT INFORMATION FOR OVERCONSTRAINT CHECKS

     COLLECTING STEP CONSTRAINT INFORMATION FOR OVERCONSTRAINT CHECKS


  INCREMENT     1 STARTS. ATTEMPT NUMBER  1, TIME INCREMENT  1.000E-03

  NUMBER OF EQUATIONS =      2257     NUMBER OF FLOATING PT. OPERATIONS =  1.93E+06

     CHECK POINT   START OF SOLVER    

     CHECK POINT  END OF SOLVER       

       ELAPSED USER TIME (SEC)      =  1.00000E-02
       ELAPSED SYSTEM TIME (SEC)    =  1.00000E-02
       ELAPSED TOTAL CPU TIME (SEC) =  2.00000E-02
       ELAPSED WALLCLOCK TIME (SEC) =          0
 

 ***WARNING: SOLVER PROBLEM. NUMERICAL SINGULARITY WHEN PROCESSING NODE 
             PLATE-1.1 D.O.F. 1 RATIO = 5.71812E+12.

               CONVERGENCE CHECKS FOR EQUILIBRIUM ITERATION     1

   MAX. PENETRATION ERROR -14.1319E-15  AT NODE PLATE-1.25 OF CONTACT PAIR 
   (ASSEMBLY_S_SURF-1,ASSEMBLY_RIGID_PRESS-1_SURF-3)
   MAX. CONTACT FORCE ERROR -576.477E-12   AT NODE PLATE-1.25 OF CONTACT PAIR 
   (ASSEMBLY_S_SURF-1,ASSEMBLY_RIGID_PRESS-1_SURF-3)
          THE CONTACT CONSTRAINTS HAVE CONVERGED.

 AVERAGE FORCE                       24.8       TIME AVG. FORCE        24.8    
 LARGEST RESIDUAL FORCE             2.114E-04   AT NODE        803   DOF  2
   INSTANCE: PLATE-1                                                                         
 LARGEST INCREMENT OF DISP.        -1.000E-03   AT NODE          1   DOF  2
   INSTANCE: RIGID_PRESS-1                                                                   
 LARGEST CORRECTION TO DISP.       -1.000E-03   AT NODE          1   DOF  2
   INSTANCE: RIGID_PRESS-1                                                                   
          DISP.    CORRECTION TOO LARGE COMPARED TO DISP.    INCREMENT

 AVERAGE MOMENT                     3.199E+04   TIME AVG. MOMENT      3.199E+04
 ALL MOMENT    RESIDUALS ARE ZERO
 LARGEST INCREMENT OF ROTATION      1.163E-43   AT NODE          1   DOF  6
   INSTANCE: RIGID_PRESS-1                                                                   
 LARGEST CORRECTION TO ROTATION     1.163E-43   AT NODE          1   DOF  6
   INSTANCE: RIGID_PRESS-1                                                                   
          THE MOMENT    EQUILIBRIUM RESPONSE WAS LINEAR IN THIS INCREMENT

  NUMBER OF EQUATIONS =      2257     NUMBER OF FLOATING PT. OPERATIONS =  1.93E+06

     CHECK POINT   START OF SOLVER    

     CHECK POINT  END OF SOLVER       

       ELAPSED USER TIME (SEC)      =  2.00000E-02
       ELAPSED SYSTEM TIME (SEC)    =   0.0000    
       ELAPSED TOTAL CPU TIME (SEC) =  2.00000E-02
       ELAPSED WALLCLOCK TIME (SEC) =          0
 

 ***WARNING: SOLVER PROBLEM. NUMERICAL SINGULARITY WHEN PROCESSING NODE 
             PLATE-1.1 D.O.F. 1 RATIO = 657.464E+09  .

               CONVERGENCE CHECKS FOR EQUILIBRIUM ITERATION     2

   MAX. PENETRATION ERROR 16.1661E-15  AT NODE PLATE-1.22 OF CONTACT PAIR 
   (ASSEMBLY_S_SURF-1,ASSEMBLY_RIGID_PRESS-1_SURF-3)
   MAX. CONTACT FORCE ERROR 659.456E-12   AT NODE PLATE-1.22 OF CONTACT PAIR 
   (ASSEMBLY_S_SURF-1,ASSEMBLY_RIGID_PRESS-1_SURF-3)
          THE CONTACT CONSTRAINTS HAVE CONVERGED.

 AVERAGE FORCE                       24.8       TIME AVG. FORCE        24.8    
 LARGEST RESIDUAL FORCE            -1.532E-08   AT NODE         26   DOF  2
   INSTANCE: PLATE-1                                                                         
 LARGEST INCREMENT OF DISP.        -1.000E-03   AT NODE          1   DOF  2
   INSTANCE: RIGID_PRESS-1                                                                   
 LARGEST CORRECTION TO DISP.       -3.461E-10   AT NODE         25   DOF  1
   INSTANCE: PLATE-1                                                                         
          THE FORCE     EQUILIBRIUM EQUATIONS HAVE CONVERGED

 AVERAGE MOMENT                     3.199E+04   TIME AVG. MOMENT      3.199E+04
 ALL MOMENT    RESIDUALS ARE ZERO
 LARGEST INCREMENT OF ROTATION      3.822E-39   AT NODE          1   DOF  6
   INSTANCE: RIGID_PRESS-1                                                                   
 LARGEST CORRECTION TO ROTATION     3.821E-39   AT NODE          1   DOF  6
   INSTANCE: RIGID_PRESS-1                                                                   
          THE MOMENT    EQUILIBRIUM EQUATIONS HAVE CONVERGED

 ITERATION SUMMARY FOR THE INCREMENT:   2 TOTAL ITERATIONS, OF WHICH
   0 ARE SEVERE DISCONTINUITY ITERATIONS AND  2 ARE EQUILIBRIUM ITERATIONS.

 TIME INCREMENT COMPLETED  1.000E-03,  FRACTION OF STEP COMPLETED  2.000E-05
 STEP TIME COMPLETED       1.000E-03,  TOTAL TIME COMPLETED        1.000E-03


  INCREMENT     2 STARTS. ATTEMPT NUMBER  1, TIME INCREMENT  1.000E-03

  NUMBER OF EQUATIONS =      2257     NUMBER OF FLOATING PT. OPERATIONS =  1.93E+06

     CHECK POINT   START OF SOLVER    

     CHECK POINT  END OF SOLVER       

       ELAPSED USER TIME (SEC)      =  2.00000E-02
       ELAPSED SYSTEM TIME (SEC)    =   0.0000    
       ELAPSED TOTAL CPU TIME (SEC) =  2.00000E-02
       ELAPSED WALLCLOCK TIME (SEC) =          0
 

 ***WARNING: SOLVER PROBLEM. NUMERICAL SINGULARITY WHEN PROCESSING NODE 
             PLATE-1.1 D.O.F. 1 RATIO = 162.495E+09  .

               CONVERGENCE CHECKS FOR EQUILIBRIUM ITERATION     1

   MAX. PENETRATION ERROR 13.2472E-15  AT NODE PLATE-1.23 OF CONTACT PAIR 
   (ASSEMBLY_S_SURF-1,ASSEMBLY_RIGID_PRESS-1_SURF-3)
   MAX. CONTACT FORCE ERROR 540.387E-12   AT NODE PLATE-1.23 OF CONTACT PAIR 
   (ASSEMBLY_S_SURF-1,ASSEMBLY_RIGID_PRESS-1_SURF-3)
          THE CONTACT CONSTRAINTS HAVE CONVERGED.

 AVERAGE FORCE                       66.5       TIME AVG. FORCE        45.6    
 LARGEST RESIDUAL FORCE            -1.819E-08   AT NODE         26   DOF  2
   INSTANCE: PLATE-1                                                                         
 LARGEST INCREMENT OF DISP.        -1.000E-03   AT NODE          1   DOF  2
   INSTANCE: RIGID_PRESS-1                                                                   
 LARGEST CORRECTION TO DISP.       -2.050E-10   AT NODE         25   DOF  1
   INSTANCE: PLATE-1                                                                         
          THE FORCE     EQUILIBRIUM RESPONSE WAS LINEAR IN THIS INCREMENT

 AVERAGE MOMENT                     6.611E+04   TIME AVG. MOMENT      4.905E+04
 ALL MOMENT    RESIDUALS ARE ZERO
 LARGEST INCREMENT OF ROTATION      1.526E-38   AT NODE          1   DOF  6
   INSTANCE: RIGID_PRESS-1                                                                   
 LARGEST CORRECTION TO ROTATION     1.144E-38   AT NODE          1   DOF  6
   INSTANCE: RIGID_PRESS-1                                                                   
          THE MOMENT    EQUILIBRIUM RESPONSE WAS LINEAR IN THIS INCREMENT
          TIME INCREMENT MAY NOW INCREASE TO    1.500E-03

 ITERATION SUMMARY FOR THE INCREMENT:   1 TOTAL ITERATIONS, OF WHICH
   0 ARE SEVERE DISCONTINUITY ITERATIONS AND  1 ARE EQUILIBRIUM ITERATIONS.

 TIME INCREMENT COMPLETED  1.000E-03,  FRACTION OF STEP COMPLETED  4.000E-05
 STEP TIME COMPLETED       2.000E-03,  TOTAL TIME COMPLETED        2.000E-03


  INCREMENT     3 STARTS. ATTEMPT NUMBER  1, TIME INCREMENT  1.500E-03

  NUMBER OF EQUATIONS =      2257     NUMBER OF FLOATING PT. OPERATIONS =  1.93E+06

     CHECK POINT   START OF SOLVER    

     CHECK POINT  END OF SOLVER       

       ELAPSED USER TIME (SEC)      =  1.00000E-02
       ELAPSED SYSTEM TIME (SEC)    =   0.0000    
       ELAPSED TOTAL CPU TIME (SEC) =  1.00000E-02
       ELAPSED WALLCLOCK TIME (SEC) =          0
 

 ***WARNING: SOLVER PROBLEM. NUMERICAL SINGULARITY WHEN PROCESSING NODE 
             PLATE-1.1 D.O.F. 1 RATIO = 53.1451E+09 .

               CONVERGENCE CHECKS FOR EQUILIBRIUM ITERATION     1

   MAX. PENETRATION ERROR -11.1920E-15  AT NODE PLATE-1.24 OF CONTACT PAIR 
   (ASSEMBLY_S_SURF-1,ASSEMBLY_RIGID_PRESS-1_SURF-3)
   MAX. CONTACT FORCE ERROR -456.550E-12   AT NODE PLATE-1.24 OF CONTACT PAIR 
   (ASSEMBLY_S_SURF-1,ASSEMBLY_RIGID_PRESS-1_SURF-3)
          THE CONTACT CONSTRAINTS HAVE CONVERGED.

 AVERAGE FORCE                       115.       TIME AVG. FORCE        68.7    
 LARGEST RESIDUAL FORCE            -2.305E-07   AT NODE         26   DOF  2
   INSTANCE: PLATE-1                                                                         
 LARGEST INCREMENT OF DISP.        -1.500E-03   AT NODE          1   DOF  2
   INSTANCE: RIGID_PRESS-1                                                                   
 LARGEST CORRECTION TO DISP.       -1.486E-09   AT NODE         25   DOF  1
   INSTANCE: PLATE-1                                                                         
          THE FORCE     EQUILIBRIUM RESPONSE WAS LINEAR IN THIS INCREMENT

 AVERAGE MOMENT                     1.157E+05   TIME AVG. MOMENT      7.126E+04
 ALL MOMENT    RESIDUALS ARE ZERO
 LARGEST INCREMENT OF ROTATION      4.672E-38   AT NODE          1   DOF  6
   INSTANCE: RIGID_PRESS-1                                                                   
 LARGEST CORRECTION TO ROTATION     2.383E-38   AT NODE          1   DOF  6
   INSTANCE: RIGID_PRESS-1                                                                   
          THE MOMENT    EQUILIBRIUM RESPONSE WAS LINEAR IN THIS INCREMENT
          TIME INCREMENT MAY NOW INCREASE TO    2.250E-03

 ITERATION SUMMARY FOR THE INCREMENT:   1 TOTAL ITERATIONS, OF WHICH
   0 ARE SEVERE DISCONTINUITY ITERATIONS AND  1 ARE EQUILIBRIUM ITERATIONS.

 TIME INCREMENT COMPLETED  1.500E-03,  FRACTION OF STEP COMPLETED  7.000E-05
 STEP TIME COMPLETED       3.500E-03,  TOTAL TIME COMPLETED        3.500E-03


  INCREMENT     4 STARTS. ATTEMPT NUMBER  1, TIME INCREMENT  2.250E-03

  NUMBER OF EQUATIONS =      2257     NUMBER OF FLOATING PT. OPERATIONS =  1.93E+06

     CHECK POINT   START OF SOLVER    

     CHECK POINT  END OF SOLVER       

       ELAPSED USER TIME (SEC)      =  1.00000E-02
       ELAPSED SYSTEM TIME (SEC)    =   0.0000    
       ELAPSED TOTAL CPU TIME (SEC) =  1.00000E-02
       ELAPSED WALLCLOCK TIME (SEC) =          0
 

 ***WARNING: SOLVER PROBLEM. NUMERICAL SINGULARITY WHEN PROCESSING NODE 
             PLATE-1.1 D.O.F. 1 RATIO = 19.7050E+09 .

               CONVERGENCE CHECKS FOR EQUILIBRIUM ITERATION     1

   MAX. PENETRATION ERROR 8.06126E-15 AT NODE PLATE-1.20 OF CONTACT PAIR 
   (ASSEMBLY_S_SURF-1,ASSEMBLY_RIGID_PRESS-1_SURF-3)
   MAX. CONTACT FORCE ERROR 328.839E-12   AT NODE PLATE-1.20 OF CONTACT PAIR 
   (ASSEMBLY_S_SURF-1,ASSEMBLY_RIGID_PRESS-1_SURF-3)
          THE CONTACT CONSTRAINTS HAVE CONVERGED.

 AVERAGE FORCE                       186.       TIME AVG. FORCE        98.0    
 LARGEST RESIDUAL FORCE            -1.809E-07   AT NODE         26   DOF  2
   INSTANCE: PLATE-1                                                                         
 LARGEST INCREMENT OF DISP.        -2.250E-03   AT NODE          1   DOF  2
   INSTANCE: RIGID_PRESS-1                                                                   
 LARGEST CORRECTION TO DISP.       -7.091E-10   AT NODE         25   DOF  1
   INSTANCE: PLATE-1                                                                         
          THE FORCE     EQUILIBRIUM RESPONSE WAS LINEAR IN THIS INCREMENT

 AVERAGE MOMENT                     1.901E+05   TIME AVG. MOMENT      1.010E+05
 ALL MOMENT    RESIDUALS ARE ZERO
 LARGEST INCREMENT OF ROTATION      1.258E-37   AT NODE          1   DOF  6
   INSTANCE: RIGID_PRESS-1                                                                   
 LARGEST CORRECTION TO ROTATION     5.571E-38   AT NODE          1   DOF  6
   INSTANCE: RIGID_PRESS-1                                                                   
          THE MOMENT    EQUILIBRIUM RESPONSE WAS LINEAR IN THIS INCREMENT
          TIME INCREMENT MAY NOW INCREASE TO    3.375E-03

 ITERATION SUMMARY FOR THE INCREMENT:   1 TOTAL ITERATIONS, OF WHICH
   0 ARE SEVERE DISCONTINUITY ITERATIONS AND  1 ARE EQUILIBRIUM ITERATIONS.

 TIME INCREMENT COMPLETED  2.250E-03,  FRACTION OF STEP COMPLETED  1.150E-04
 STEP TIME COMPLETED       5.750E-03,  TOTAL TIME COMPLETED        5.750E-03


  INCREMENT     5 STARTS. ATTEMPT NUMBER  1, TIME INCREMENT  3.375E-03

  NUMBER OF EQUATIONS =      2257     NUMBER OF FLOATING PT. OPERATIONS =  1.93E+06

     CHECK POINT   START OF SOLVER    

     CHECK POINT  END OF SOLVER       

       ELAPSED USER TIME (SEC)      =  2.00000E-02
       ELAPSED SYSTEM TIME (SEC)    =   0.0000    
       ELAPSED TOTAL CPU TIME (SEC) =  2.00000E-02
       ELAPSED WALLCLOCK TIME (SEC) =          0
 

 ***WARNING: SOLVER PROBLEM. NUMERICAL SINGULARITY WHEN PROCESSING NODE 
             PLATE-1.1 D.O.F. 1 RATIO = 7.82329E+09.

               CONVERGENCE CHECKS FOR EQUILIBRIUM ITERATION     1

   MAX. PENETRATION ERROR 11.7614E-15  AT NODE PLATE-1.26 OF CONTACT PAIR 
   (ASSEMBLY_S_SURF-1,ASSEMBLY_RIGID_PRESS-1_SURF-3)
   MAX. CONTACT FORCE ERROR 470.084E-12   AT NODE PLATE-1.334 OF CONTACT PAIR 
   (ASSEMBLY_S_SURF-1,ASSEMBLY_RIGID_PRESS-1_SURF-3)
          THE CONTACT CONSTRAINTS HAVE CONVERGED.

 AVERAGE FORCE                       292.       TIME AVG. FORCE        137.    
 LARGEST RESIDUAL FORCE            -6.070E-07   AT NODE         26   DOF  2
   INSTANCE: PLATE-1                                                                         
 LARGEST INCREMENT OF DISP.        -3.375E-03   AT NODE          1   DOF  2
   INSTANCE: RIGID_PRESS-1                                                                   
 LARGEST CORRECTION TO DISP.       -1.500E-09   AT NODE         25   DOF  1
   INSTANCE: PLATE-1                                                                         
          THE FORCE     EQUILIBRIUM RESPONSE WAS LINEAR IN THIS INCREMENT

 AVERAGE MOMENT                     3.016E+05   TIME AVG. MOMENT      1.411E+05
 ALL MOMENT    RESIDUALS ARE ZERO
 LARGEST INCREMENT OF ROTATION      3.164E-37   AT NODE          1   DOF  6
   INSTANCE: RIGID_PRESS-1                                                                   
 LARGEST CORRECTION TO ROTATION     1.277E-37   AT NODE          1   DOF  6
   INSTANCE: RIGID_PRESS-1                                                                   
          THE MOMENT    EQUILIBRIUM RESPONSE WAS LINEAR IN THIS INCREMENT
          TIME INCREMENT MAY NOW INCREASE TO    5.063E-03

 ITERATION SUMMARY FOR THE INCREMENT:   1 TOTAL ITERATIONS, OF WHICH
   0 ARE SEVERE DISCONTINUITY ITERATIONS AND  1 ARE EQUILIBRIUM ITERATIONS.

 TIME INCREMENT COMPLETED  3.375E-03,  FRACTION OF STEP COMPLETED  1.825E-04
 STEP TIME COMPLETED       9.125E-03,  TOTAL TIME COMPLETED        9.125E-03


  INCREMENT     6 STARTS. ATTEMPT NUMBER  1, TIME INCREMENT  5.063E-03

  NUMBER OF EQUATIONS =      2257     NUMBER OF FLOATING PT. OPERATIONS =  1.93E+06

     CHECK POINT   START OF SOLVER    

     CHECK POINT  END OF SOLVER       

       ELAPSED USER TIME (SEC)      =  1.00000E-02
       ELAPSED SYSTEM TIME (SEC)    =  1.00000E-02
       ELAPSED TOTAL CPU TIME (SEC) =  2.00000E-02
       ELAPSED WALLCLOCK TIME (SEC) =          0
 

 ***WARNING: THE SYSTEM MATRIX HAS 1 NEGATIVE EIGENVALUES.

     NEGATIVE EIGENVALUES MEAN THAT THE SYSTEM MATRIX IS NOT 
     POSITIVE DEFINITE:
     FOR EXAMPLE, A BIFURCATION (BUCKLING) LOAD MAY HAVE BEEN EXCEEDED.

               CONVERGENCE CHECKS FOR EQUILIBRIUM ITERATION     1

   MAX. PENETRATION ERROR 20.5721E-15  AT NODE PLATE-1.26 OF CONTACT PAIR 
   (ASSEMBLY_S_SURF-1,ASSEMBLY_RIGID_PRESS-1_SURF-3)
   MAX. CONTACT FORCE ERROR -601.846E-12   AT NODE PLATE-1.324 OF CONTACT PAIR 
   (ASSEMBLY_S_SURF-1,ASSEMBLY_RIGID_PRESS-1_SURF-3)
          THE CONTACT CONSTRAINTS HAVE CONVERGED.

 AVERAGE FORCE                       451.       TIME AVG. FORCE        189.    
 LARGEST RESIDUAL FORCE            -2.305E-06   AT NODE         26   DOF  2
   INSTANCE: PLATE-1                                                                         
 LARGEST INCREMENT OF DISP.        -5.063E-03   AT NODE          1   DOF  2
   INSTANCE: RIGID_PRESS-1                                                                   
 LARGEST CORRECTION TO DISP.       -3.664E-09   AT NODE         25   DOF  1
   INSTANCE: PLATE-1                                                                         
          THE FORCE     EQUILIBRIUM EQUATIONS HAVE CONVERGED

 AVERAGE MOMENT                     4.689E+05   TIME AVG. MOMENT      1.957E+05
 ALL MOMENT    RESIDUALS ARE ZERO
 LARGEST INCREMENT OF ROTATION      7.635E-37   AT NODE          1   DOF  6
   INSTANCE: RIGID_PRESS-1                                                                   
 LARGEST CORRECTION TO ROTATION     2.889E-37   AT NODE          1   DOF  6
   INSTANCE: RIGID_PRESS-1                                                                   
          THE MOMENT    EQUILIBRIUM RESPONSE WAS LINEAR IN THIS INCREMENT
          TIME INCREMENT MAY NOW INCREASE TO    7.594E-03

 ITERATION SUMMARY FOR THE INCREMENT:   1 TOTAL ITERATIONS, OF WHICH
   0 ARE SEVERE DISCONTINUITY ITERATIONS AND  1 ARE EQUILIBRIUM ITERATIONS.

 TIME INCREMENT COMPLETED  5.063E-03,  FRACTION OF STEP COMPLETED  2.838E-04
 STEP TIME COMPLETED       1.419E-02,  TOTAL TIME COMPLETED        1.419E-02


  INCREMENT     7 STARTS. ATTEMPT NUMBER  1, TIME INCREMENT  7.594E-03

  NUMBER OF EQUATIONS =      2257     NUMBER OF FLOATING PT. OPERATIONS =  1.93E+06

     CHECK POINT   START OF SOLVER    

     CHECK POINT  END OF SOLVER       

       ELAPSED USER TIME (SEC)      =  2.00000E-02
       ELAPSED SYSTEM TIME (SEC)    =   0.0000    
       ELAPSED TOTAL CPU TIME (SEC) =  2.00000E-02
       ELAPSED WALLCLOCK TIME (SEC) =          0
 

 ***WARNING: THE SYSTEM MATRIX HAS 1 NEGATIVE EIGENVALUES.
             EXPLANATIONS ARE SUGGESTED AFTER THE FIRST OCCURRENCE OF THIS MESSAGE.

               CONVERGENCE CHECKS FOR EQUILIBRIUM ITERATION     1

   MAX. PENETRATION ERROR 114.051E-15   AT NODE PLATE-1.26 OF CONTACT PAIR 
   (ASSEMBLY_S_SURF-1,ASSEMBLY_RIGID_PRESS-1_SURF-3)
   MAX. CONTACT FORCE ERROR 2.78710E-09 AT NODE PLATE-1.25 OF CONTACT PAIR 
   (ASSEMBLY_S_SURF-1,ASSEMBLY_RIGID_PRESS-1_SURF-3)
          THE CONTACT CONSTRAINTS HAVE CONVERGED.

 AVERAGE FORCE                       684.       TIME AVG. FORCE        260.    
 LARGEST RESIDUAL FORCE            -8.370E-06   AT NODE         26   DOF  2
   INSTANCE: PLATE-1                                                                         
 LARGEST INCREMENT OF DISP.        -7.594E-03   AT NODE          1   DOF  2
   INSTANCE: RIGID_PRESS-1                                                                   
 LARGEST CORRECTION TO DISP.       -8.675E-09   AT NODE         25   DOF  1
   INSTANCE: PLATE-1                                                                         
          THE FORCE     EQUILIBRIUM EQUATIONS HAVE CONVERGED

 AVERAGE MOMENT                     7.199E+05   TIME AVG. MOMENT      2.706E+05
 ALL MOMENT    RESIDUALS ARE ZERO
 LARGEST INCREMENT OF ROTATION      1.795E-36   AT NODE          1   DOF  6
   INSTANCE: RIGID_PRESS-1                                                                   
 LARGEST CORRECTION TO ROTATION     6.498E-37   AT NODE          1   DOF  6
   INSTANCE: RIGID_PRESS-1                                                                   
          THE MOMENT    EQUILIBRIUM RESPONSE WAS LINEAR IN THIS INCREMENT
          TIME INCREMENT MAY NOW INCREASE TO    1.139E-02

 ITERATION SUMMARY FOR THE INCREMENT:   1 TOTAL ITERATIONS, OF WHICH
   0 ARE SEVERE DISCONTINUITY ITERATIONS AND  1 ARE EQUILIBRIUM ITERATIONS.

 TIME INCREMENT COMPLETED  7.594E-03,  FRACTION OF STEP COMPLETED  4.356E-04
 STEP TIME COMPLETED       2.178E-02,  TOTAL TIME COMPLETED        2.178E-02


  INCREMENT     8 STARTS. ATTEMPT NUMBER  1, TIME INCREMENT  1.139E-02

  NUMBER OF EQUATIONS =      2257     NUMBER OF FLOATING PT. OPERATIONS =  1.93E+06

     CHECK POINT   START OF SOLVER    

     CHECK POINT  END OF SOLVER       

       ELAPSED USER TIME (SEC)      =  1.00000E-02
       ELAPSED SYSTEM TIME (SEC)    =   0.0000    
       ELAPSED TOTAL CPU TIME (SEC) =  1.00000E-02
       ELAPSED WALLCLOCK TIME (SEC) =          0
 

 ***WARNING: THE SYSTEM MATRIX HAS 1 NEGATIVE EIGENVALUES.
             EXPLANATIONS ARE SUGGESTED AFTER THE FIRST OCCURRENCE OF THIS MESSAGE.

               CONVERGENCE CHECKS FOR EQUILIBRIUM ITERATION     1

   MAX. PENETRATION ERROR 378.572E-15   AT NODE PLATE-1.26 OF CONTACT PAIR 
   (ASSEMBLY_S_SURF-1,ASSEMBLY_RIGID_PRESS-1_SURF-3)
   MAX. CONTACT FORCE ERROR 9.53782E-09 AT NODE PLATE-1.25 OF CONTACT PAIR 
   (ASSEMBLY_S_SURF-1,ASSEMBLY_RIGID_PRESS-1_SURF-3)
          THE CONTACT CONSTRAINTS HAVE CONVERGED.

 AVERAGE FORCE                      1.024E+03   TIME AVG. FORCE        355.    
 LARGEST RESIDUAL FORCE            -2.987E-05   AT NODE         26   DOF  2
   INSTANCE: PLATE-1                                                                         
 LARGEST INCREMENT OF DISP.        -1.139E-02   AT NODE          1   DOF  2
   INSTANCE: RIGID_PRESS-1                                                                   
 LARGEST CORRECTION TO DISP.       -2.035E-08   AT NODE         25   DOF  1
   INSTANCE: PLATE-1                                                                         
          THE FORCE     EQUILIBRIUM EQUATIONS HAVE CONVERGED

 AVERAGE MOMENT                     1.096E+06   TIME AVG. MOMENT      3.738E+05
 ALL MOMENT    RESIDUALS ARE ZERO
 LARGEST INCREMENT OF ROTATION      4.148E-36   AT NODE          1   DOF  6
   INSTANCE: RIGID_PRESS-1                                                                   
 LARGEST CORRECTION TO ROTATION     1.455E-36   AT NODE          1   DOF  6
   INSTANCE: RIGID_PRESS-1                                                                   
          THE MOMENT    EQUILIBRIUM RESPONSE WAS LINEAR IN THIS INCREMENT
          TIME INCREMENT MAY NOW INCREASE TO    1.709E-02

 ITERATION SUMMARY FOR THE INCREMENT:   1 TOTAL ITERATIONS, OF WHICH
   0 ARE SEVERE DISCONTINUITY ITERATIONS AND  1 ARE EQUILIBRIUM ITERATIONS.

 TIME INCREMENT COMPLETED  1.139E-02,  FRACTION OF STEP COMPLETED  6.634E-04
 STEP TIME COMPLETED       3.317E-02,  TOTAL TIME COMPLETED        3.317E-02


  INCREMENT     9 STARTS. ATTEMPT NUMBER  1, TIME INCREMENT  1.709E-02

  NUMBER OF EQUATIONS =      2257     NUMBER OF FLOATING PT. OPERATIONS =  1.93E+06

     CHECK POINT   START OF SOLVER    

     CHECK POINT  END OF SOLVER       

       ELAPSED USER TIME (SEC)      =  2.00000E-02
       ELAPSED SYSTEM TIME (SEC)    =   0.0000    
       ELAPSED TOTAL CPU TIME (SEC) =  2.00000E-02
       ELAPSED WALLCLOCK TIME (SEC) =          0
 

 ***WARNING: THE SYSTEM MATRIX HAS 1 NEGATIVE EIGENVALUES.
             EXPLANATIONS ARE SUGGESTED AFTER THE FIRST OCCURRENCE OF THIS MESSAGE.

               CONVERGENCE CHECKS FOR EQUILIBRIUM ITERATION     1

   MAX. PENETRATION ERROR 1.34186E-12 AT NODE PLATE-1.26 OF CONTACT PAIR 
   (ASSEMBLY_S_SURF-1,ASSEMBLY_RIGID_PRESS-1_SURF-3)
   MAX. CONTACT FORCE ERROR 33.4976E-09  AT NODE PLATE-1.25 OF CONTACT PAIR 
   (ASSEMBLY_S_SURF-1,ASSEMBLY_RIGID_PRESS-1_SURF-3)
          THE CONTACT CONSTRAINTS HAVE CONVERGED.

 AVERAGE FORCE                      1.524E+03   TIME AVG. FORCE        485.    
 LARGEST RESIDUAL FORCE            -1.031E-04   AT NODE         26   DOF  2
   INSTANCE: PLATE-1                                                                         
 LARGEST INCREMENT OF DISP.        -1.709E-02   AT NODE          1   DOF  2
   INSTANCE: RIGID_PRESS-1                                                                   
 LARGEST CORRECTION TO DISP.       -4.644E-08   AT NODE         25   DOF  1
   INSTANCE: PLATE-1                                                                         
          THE FORCE     EQUILIBRIUM EQUATIONS HAVE CONVERGED

 AVERAGE MOMENT                     1.661E+06   TIME AVG. MOMENT      5.169E+05
 ALL MOMENT    RESIDUALS ARE ZERO
 LARGEST INCREMENT OF ROTATION      9.467E-36   AT NODE          1   DOF  6
   INSTANCE: RIGID_PRESS-1                                                                   
 LARGEST CORRECTION TO ROTATION     3.245E-36   AT NODE          1   DOF  6
   INSTANCE: RIGID_PRESS-1                                                                   
          THE MOMENT    EQUILIBRIUM RESPONSE WAS LINEAR IN THIS INCREMENT
          TIME INCREMENT MAY NOW INCREASE TO    2.563E-02

 ITERATION SUMMARY FOR THE INCREMENT:   1 TOTAL ITERATIONS, OF WHICH
   0 ARE SEVERE DISCONTINUITY ITERATIONS AND  1 ARE EQUILIBRIUM ITERATIONS.

 TIME INCREMENT COMPLETED  1.709E-02,  FRACTION OF STEP COMPLETED  1.005E-03
 STEP TIME COMPLETED       5.026E-02,  TOTAL TIME COMPLETED        5.026E-02


  INCREMENT    10 STARTS. ATTEMPT NUMBER  1, TIME INCREMENT  2.563E-02

  NUMBER OF EQUATIONS =      2257     NUMBER OF FLOATING PT. OPERATIONS =  1.93E+06

     CHECK POINT   START OF SOLVER    

     CHECK POINT  END OF SOLVER       

       ELAPSED USER TIME (SEC)      =  1.00000E-02
       ELAPSED SYSTEM TIME (SEC)    =   0.0000    
       ELAPSED TOTAL CPU TIME (SEC) =  1.00000E-02
       ELAPSED WALLCLOCK TIME (SEC) =          0
 

 ***WARNING: THE SYSTEM MATRIX HAS 1 NEGATIVE EIGENVALUES.
             EXPLANATIONS ARE SUGGESTED AFTER THE FIRST OCCURRENCE OF THIS MESSAGE.

               CONVERGENCE CHECKS FOR EQUILIBRIUM ITERATION     1

   MAX. PENETRATION ERROR 4.58179E-12 AT NODE PLATE-1.26 OF CONTACT PAIR 
   (ASSEMBLY_S_SURF-1,ASSEMBLY_RIGID_PRESS-1_SURF-3)
   MAX. CONTACT FORCE ERROR 114.770E-09   AT NODE PLATE-1.25 OF CONTACT PAIR 
   (ASSEMBLY_S_SURF-1,ASSEMBLY_RIGID_PRESS-1_SURF-3)
          THE CONTACT CONSTRAINTS HAVE CONVERGED.

 AVERAGE FORCE                      2.272E+03   TIME AVG. FORCE        664.    
 LARGEST RESIDUAL FORCE            -3.515E-04   AT NODE         26   DOF  2
   INSTANCE: PLATE-1                                                                         
 LARGEST INCREMENT OF DISP.        -2.563E-02   AT NODE          1   DOF  2
   INSTANCE: RIGID_PRESS-1                                                                   
 LARGEST CORRECTION TO DISP.       -1.051E-07   AT NODE         25   DOF  1
   INSTANCE: PLATE-1                                                                         
          THE FORCE     EQUILIBRIUM EQUATIONS HAVE CONVERGED

 AVERAGE MOMENT                     2.508E+06   TIME AVG. MOMENT      7.160E+05
 ALL MOMENT    RESIDUALS ARE ZERO
 LARGEST INCREMENT OF ROTATION      2.140E-35   AT NODE          1   DOF  6
   INSTANCE: RIGID_PRESS-1                                                                   
 LARGEST CORRECTION TO ROTATION     7.198E-36   AT NODE          1   DOF  6
   INSTANCE: RIGID_PRESS-1                                                                   
          THE MOMENT    EQUILIBRIUM RESPONSE WAS LINEAR IN THIS INCREMENT
          TIME INCREMENT MAY NOW INCREASE TO    3.844E-02

 ITERATION SUMMARY FOR THE INCREMENT:   1 TOTAL ITERATIONS, OF WHICH
   0 ARE SEVERE DISCONTINUITY ITERATIONS AND  1 ARE EQUILIBRIUM ITERATIONS.

 TIME INCREMENT COMPLETED  2.563E-02,  FRACTION OF STEP COMPLETED  1.518E-03
 STEP TIME COMPLETED       7.589E-02,  TOTAL TIME COMPLETED        7.589E-02


  INCREMENT    11 STARTS. ATTEMPT NUMBER  1, TIME INCREMENT  3.844E-02

  NUMBER OF EQUATIONS =      2257     NUMBER OF FLOATING PT. OPERATIONS =  1.93E+06

     CHECK POINT   START OF SOLVER    

     CHECK POINT  END OF SOLVER       

       ELAPSED USER TIME (SEC)      =  1.00000E-02
       ELAPSED SYSTEM TIME (SEC)    =   0.0000    
       ELAPSED TOTAL CPU TIME (SEC) =  1.00000E-02
       ELAPSED WALLCLOCK TIME (SEC) =          0
 

 ***WARNING: THE SYSTEM MATRIX HAS 1 NEGATIVE EIGENVALUES.
             EXPLANATIONS ARE SUGGESTED AFTER THE FIRST OCCURRENCE OF THIS MESSAGE.

               CONVERGENCE CHECKS FOR EQUILIBRIUM ITERATION     1

   MAX. PENETRATION ERROR 15.5350E-12  AT NODE PLATE-1.26 OF CONTACT PAIR 
   (ASSEMBLY_S_SURF-1,ASSEMBLY_RIGID_PRESS-1_SURF-3)
   MAX. CONTACT FORCE ERROR 390.082E-09   AT NODE PLATE-1.25 OF CONTACT PAIR 
   (ASSEMBLY_S_SURF-1,ASSEMBLY_RIGID_PRESS-1_SURF-3)
          THE CONTACT CONSTRAINTS HAVE CONVERGED.

 AVERAGE FORCE                      3.383E+03   TIME AVG. FORCE        911.    
 LARGEST RESIDUAL FORCE            -1.187E-03   AT NODE         26   DOF  2
   INSTANCE: PLATE-1                                                                         
 LARGEST INCREMENT OF DISP.        -3.844E-02   AT NODE          1   DOF  2
   INSTANCE: RIGID_PRESS-1                                                                   
 LARGEST CORRECTION TO DISP.       -2.365E-07   AT NODE         25   DOF  1
   INSTANCE: PLATE-1                                                                         
          THE FORCE     EQUILIBRIUM EQUATIONS HAVE CONVERGED

 AVERAGE MOMENT                     3.779E+06   TIME AVG. MOMENT      9.945E+05
 ALL MOMENT    RESIDUALS ARE ZERO
 LARGEST INCREMENT OF ROTATION      4.794E-35   AT NODE          1   DOF  6
   INSTANCE: RIGID_PRESS-1                                                                   
 LARGEST CORRECTION TO ROTATION     1.584E-35   AT NODE          1   DOF  6
   INSTANCE: RIGID_PRESS-1                                                                   
          THE MOMENT    EQUILIBRIUM RESPONSE WAS LINEAR IN THIS INCREMENT
          TIME INCREMENT MAY NOW INCREASE TO    5.767E-02

 ITERATION SUMMARY FOR THE INCREMENT:   1 TOTAL ITERATIONS, OF WHICH
   0 ARE SEVERE DISCONTINUITY ITERATIONS AND  1 ARE EQUILIBRIUM ITERATIONS.

 TIME INCREMENT COMPLETED  3.844E-02,  FRACTION OF STEP COMPLETED  2.287E-03
 STEP TIME COMPLETED       0.114    ,  TOTAL TIME COMPLETED        0.114    


  INCREMENT    12 STARTS. ATTEMPT NUMBER  1, TIME INCREMENT  5.767E-02

  NUMBER OF EQUATIONS =      2257     NUMBER OF FLOATING PT. OPERATIONS =  1.93E+06

     CHECK POINT   START OF SOLVER    

     CHECK POINT  END OF SOLVER       

       ELAPSED USER TIME (SEC)      =  1.00000E-02
       ELAPSED SYSTEM TIME (SEC)    =   0.0000    
       ELAPSED TOTAL CPU TIME (SEC) =  1.00000E-02
       ELAPSED WALLCLOCK TIME (SEC) =          0
 

 ***WARNING: THE SYSTEM MATRIX HAS 1 NEGATIVE EIGENVALUES.
             EXPLANATIONS ARE SUGGESTED AFTER THE FIRST OCCURRENCE OF THIS MESSAGE.

               CONVERGENCE CHECKS FOR EQUILIBRIUM ITERATION     1

   MAX. PENETRATION ERROR 52.1230E-12  AT NODE PLATE-1.26 OF CONTACT PAIR 
   (ASSEMBLY_S_SURF-1,ASSEMBLY_RIGID_PRESS-1_SURF-3)
   MAX. CONTACT FORCE ERROR 1.31166E-06 AT NODE PLATE-1.25 OF CONTACT PAIR 
   (ASSEMBLY_S_SURF-1,ASSEMBLY_RIGID_PRESS-1_SURF-3)
          THE CONTACT CONSTRAINTS HAVE CONVERGED.

 AVERAGE FORCE                      5.033E+03   TIME AVG. FORCE       1.255E+03
 LARGEST RESIDUAL FORCE            -3.971E-03   AT NODE         26   DOF  2
   INSTANCE: PLATE-1                                                                         
 LARGEST INCREMENT OF DISP.        -5.767E-02   AT NODE          1   DOF  2
   INSTANCE: RIGID_PRESS-1                                                                   
 LARGEST CORRECTION TO DISP.       -5.286E-07   AT NODE         25   DOF  1
   INSTANCE: PLATE-1                                                                         
          THE FORCE     EQUILIBRIUM EQUATIONS HAVE CONVERGED

 AVERAGE MOMENT                     5.685E+06   TIME AVG. MOMENT      1.385E+06
 ALL MOMENT    RESIDUALS ARE ZERO
 LARGEST INCREMENT OF ROTATION      1.063E-34   AT NODE          1   DOF  6
   INSTANCE: RIGID_PRESS-1                                                                   
 LARGEST CORRECTION TO ROTATION     3.443E-35   AT NODE          1   DOF  6
   INSTANCE: RIGID_PRESS-1                                                                   
          THE MOMENT    EQUILIBRIUM RESPONSE WAS LINEAR IN THIS INCREMENT
          TIME INCREMENT MAY NOW INCREASE TO    8.650E-02

 ITERATION SUMMARY FOR THE INCREMENT:   1 TOTAL ITERATIONS, OF WHICH
   0 ARE SEVERE DISCONTINUITY ITERATIONS AND  1 ARE EQUILIBRIUM ITERATIONS.

 TIME INCREMENT COMPLETED  5.767E-02,  FRACTION OF STEP COMPLETED  3.440E-03
 STEP TIME COMPLETED       0.172    ,  TOTAL TIME COMPLETED        0.172    


  INCREMENT    13 STARTS. ATTEMPT NUMBER  1, TIME INCREMENT  8.650E-02

  NUMBER OF EQUATIONS =      2257     NUMBER OF FLOATING PT. OPERATIONS =  1.93E+06

     CHECK POINT   START OF SOLVER    

     CHECK POINT  END OF SOLVER       

       ELAPSED USER TIME (SEC)      =  2.00000E-02
       ELAPSED SYSTEM TIME (SEC)    =   0.0000    
       ELAPSED TOTAL CPU TIME (SEC) =  2.00000E-02
       ELAPSED WALLCLOCK TIME (SEC) =          0
 

 ***WARNING: THE SYSTEM MATRIX HAS 1 NEGATIVE EIGENVALUES.
             EXPLANATIONS ARE SUGGESTED AFTER THE FIRST OCCURRENCE OF THIS MESSAGE.

               CONVERGENCE CHECKS FOR EQUILIBRIUM ITERATION     1

   MAX. PENETRATION ERROR 173.222E-12   AT NODE PLATE-1.26 OF CONTACT PAIR 
   (ASSEMBLY_S_SURF-1,ASSEMBLY_RIGID_PRESS-1_SURF-3)
   MAX. CONTACT FORCE ERROR 4.37319E-06 AT NODE PLATE-1.25 OF CONTACT PAIR 
   (ASSEMBLY_S_SURF-1,ASSEMBLY_RIGID_PRESS-1_SURF-3)
          THE CONTACT CONSTRAINTS HAVE CONVERGED.

 AVERAGE FORCE                      7.490E+03   TIME AVG. FORCE       1.734E+03
 LARGEST RESIDUAL FORCE            -1.313E-02   AT NODE         26   DOF  2
   INSTANCE: PLATE-1                                                                         
 LARGEST INCREMENT OF DISP.        -8.650E-02   AT NODE          1   DOF  2
   INSTANCE: RIGID_PRESS-1                                                                   
 LARGEST CORRECTION TO DISP.       -1.173E-06   AT NODE         25   DOF  1
   INSTANCE: PLATE-1                                                                         
          THE FORCE     EQUILIBRIUM EQUATIONS HAVE CONVERGED

 AVERAGE MOMENT                     8.544E+06   TIME AVG. MOMENT      1.936E+06
 ALL MOMENT    RESIDUALS ARE ZERO
 LARGEST INCREMENT OF ROTATION      2.330E-34   AT NODE          1   DOF  6
   INSTANCE: RIGID_PRESS-1                                                                   
 LARGEST CORRECTION TO ROTATION     7.350E-35   AT NODE          1   DOF  6
   INSTANCE: RIGID_PRESS-1                                                                   
          THE MOMENT    EQUILIBRIUM RESPONSE WAS LINEAR IN THIS INCREMENT
          TIME INCREMENT MAY NOW INCREASE TO    0.130    

 ITERATION SUMMARY FOR THE INCREMENT:   1 TOTAL ITERATIONS, OF WHICH
   0 ARE SEVERE DISCONTINUITY ITERATIONS AND  1 ARE EQUILIBRIUM ITERATIONS.

 TIME INCREMENT COMPLETED  8.650E-02,  FRACTION OF STEP COMPLETED  5.170E-03
 STEP TIME COMPLETED       0.258    ,  TOTAL TIME COMPLETED        0.258    


  INCREMENT    14 STARTS. ATTEMPT NUMBER  1, TIME INCREMENT  0.130    

  NUMBER OF EQUATIONS =      2257     NUMBER OF FLOATING PT. OPERATIONS =  1.93E+06

     CHECK POINT   START OF SOLVER    

     CHECK POINT  END OF SOLVER       

       ELAPSED USER TIME (SEC)      =  1.00000E-02
       ELAPSED SYSTEM TIME (SEC)    =   0.0000    
       ELAPSED TOTAL CPU TIME (SEC) =  1.00000E-02
       ELAPSED WALLCLOCK TIME (SEC) =          0
 

 ***WARNING: THE SYSTEM MATRIX HAS 1 NEGATIVE EIGENVALUES.
             EXPLANATIONS ARE SUGGESTED AFTER THE FIRST OCCURRENCE OF THIS MESSAGE.

               CONVERGENCE CHECKS FOR EQUILIBRIUM ITERATION     1

   MAX. PENETRATION ERROR 568.472E-12   AT NODE PLATE-1.26 OF CONTACT PAIR 
   (ASSEMBLY_S_SURF-1,ASSEMBLY_RIGID_PRESS-1_SURF-3)
   MAX. CONTACT FORCE ERROR 14.4244E-06  AT NODE PLATE-1.25 OF CONTACT PAIR 
   (ASSEMBLY_S_SURF-1,ASSEMBLY_RIGID_PRESS-1_SURF-3)
          THE CONTACT CONSTRAINTS HAVE CONVERGED.

 AVERAGE FORCE                      1.113E+04   TIME AVG. FORCE       2.405E+03
 LARGEST RESIDUAL FORCE            -4.277E-02   AT NODE         26   DOF  2
   INSTANCE: PLATE-1                                                                         
 LARGEST INCREMENT OF DISP.        -0.130       AT NODE          1   DOF  2
   INSTANCE: RIGID_PRESS-1                                                                   
 LARGEST CORRECTION TO DISP.       -2.574E-06   AT NODE         25   DOF  1
   INSTANCE: PLATE-1                                                                         
          THE FORCE     EQUILIBRIUM EQUATIONS HAVE CONVERGED

 AVERAGE MOMENT                     1.283E+07   TIME AVG. MOMENT      2.714E+06
 ALL MOMENT    RESIDUALS ARE ZERO
 LARGEST INCREMENT OF ROTATION      5.019E-34   AT NODE          1   DOF  6
   INSTANCE: RIGID_PRESS-1                                                                   
 LARGEST CORRECTION TO ROTATION     1.524E-34   AT NODE          1   DOF  6
   INSTANCE: RIGID_PRESS-1                                                                   
          THE MOMENT    EQUILIBRIUM RESPONSE WAS LINEAR IN THIS INCREMENT
          TIME INCREMENT MAY NOW INCREASE TO    0.195    

 ITERATION SUMMARY FOR THE INCREMENT:   1 TOTAL ITERATIONS, OF WHICH
   0 ARE SEVERE DISCONTINUITY ITERATIONS AND  1 ARE EQUILIBRIUM ITERATIONS.

 TIME INCREMENT COMPLETED  0.130    ,  FRACTION OF STEP COMPLETED  7.765E-03
 STEP TIME COMPLETED       0.388    ,  TOTAL TIME COMPLETED        0.388    


  INCREMENT    15 STARTS. ATTEMPT NUMBER  1, TIME INCREMENT  0.195    

  NUMBER OF EQUATIONS =      2257     NUMBER OF FLOATING PT. OPERATIONS =  1.93E+06

     CHECK POINT   START OF SOLVER    

     CHECK POINT  END OF SOLVER       

       ELAPSED USER TIME (SEC)      =  2.00000E-02
       ELAPSED SYSTEM TIME (SEC)    =   0.0000    
       ELAPSED TOTAL CPU TIME (SEC) =  2.00000E-02
       ELAPSED WALLCLOCK TIME (SEC) =          1
 

 ***WARNING: THE SYSTEM MATRIX HAS 1 NEGATIVE EIGENVALUES.
             EXPLANATIONS ARE SUGGESTED AFTER THE FIRST OCCURRENCE OF THIS MESSAGE.

               CONVERGENCE CHECKS FOR EQUILIBRIUM ITERATION     1

   MAX. PENETRATION ERROR 1.83331E-09 AT NODE PLATE-1.26 OF CONTACT PAIR 
   (ASSEMBLY_S_SURF-1,ASSEMBLY_RIGID_PRESS-1_SURF-3)
   MAX. CONTACT FORCE ERROR 46.8682E-06  AT NODE PLATE-1.25 OF CONTACT PAIR 
   (ASSEMBLY_S_SURF-1,ASSEMBLY_RIGID_PRESS-1_SURF-3)
          THE CONTACT CONSTRAINTS HAVE CONVERGED.

 AVERAGE FORCE                      1.655E+04   TIME AVG. FORCE       3.348E+03
 LARGEST RESIDUAL FORCE            -0.136       AT NODE         26   DOF  2
   INSTANCE: PLATE-1                                                                         
 LARGEST INCREMENT OF DISP.        -0.195       AT NODE          1   DOF  2
   INSTANCE: RIGID_PRESS-1                                                                   
 LARGEST CORRECTION TO DISP.       -5.569E-06   AT NODE         25   DOF  1
   INSTANCE: PLATE-1                                                                         
          THE FORCE     EQUILIBRIUM EQUATIONS HAVE CONVERGED

 AVERAGE MOMENT                     1.927E+07   TIME AVG. MOMENT      3.818E+06
 ALL MOMENT    RESIDUALS ARE ZERO
 LARGEST INCREMENT OF ROTATION      1.054E-33   AT NODE          1   DOF  6
   INSTANCE: RIGID_PRESS-1                                                                   
 LARGEST CORRECTION TO ROTATION     3.012E-34   AT NODE          1   DOF  6
   INSTANCE: RIGID_PRESS-1                                                                   
          THE MOMENT    EQUILIBRIUM RESPONSE WAS LINEAR IN THIS INCREMENT
          TIME INCREMENT MAY NOW INCREASE TO    0.292    

 ITERATION SUMMARY FOR THE INCREMENT:   1 TOTAL ITERATIONS, OF WHICH
   0 ARE SEVERE DISCONTINUITY ITERATIONS AND  1 ARE EQUILIBRIUM ITERATIONS.

 TIME INCREMENT COMPLETED  0.195    ,  FRACTION OF STEP COMPLETED  1.166E-02
 STEP TIME COMPLETED       0.583    ,  TOTAL TIME COMPLETED        0.583    


  INCREMENT    16 STARTS. ATTEMPT NUMBER  1, TIME INCREMENT  0.292    

  NUMBER OF EQUATIONS =      2257     NUMBER OF FLOATING PT. OPERATIONS =  1.93E+06

     CHECK POINT   START OF SOLVER    

     CHECK POINT  END OF SOLVER       

       ELAPSED USER TIME (SEC)      =  1.00000E-02
       ELAPSED SYSTEM TIME (SEC)    =   0.0000    
       ELAPSED TOTAL CPU TIME (SEC) =  1.00000E-02
       ELAPSED WALLCLOCK TIME (SEC) =          0
 

 ***WARNING: THE SYSTEM MATRIX HAS 1 NEGATIVE EIGENVALUES.
             EXPLANATIONS ARE SUGGESTED AFTER THE FIRST OCCURRENCE OF THIS MESSAGE.

               CONVERGENCE CHECKS FOR EQUILIBRIUM ITERATION     1

   MAX. PENETRATION ERROR 5.76248E-09 AT NODE PLATE-1.26 OF CONTACT PAIR 
   (ASSEMBLY_S_SURF-1,ASSEMBLY_RIGID_PRESS-1_SURF-3)
   MAX. CONTACT FORCE ERROR 148.992E-06   AT NODE PLATE-1.25 OF CONTACT PAIR 
   (ASSEMBLY_S_SURF-1,ASSEMBLY_RIGID_PRESS-1_SURF-3)
          THE CONTACT CONSTRAINTS HAVE CONVERGED.

 AVERAGE FORCE                      2.459E+04   TIME AVG. FORCE       4.676E+03
 LARGEST RESIDUAL FORCE            -0.421       AT NODE         26   DOF  2
   INSTANCE: PLATE-1                                                                         
 LARGEST INCREMENT OF DISP.        -0.292       AT NODE          1   DOF  2
   INSTANCE: RIGID_PRESS-1                                                                   
 LARGEST CORRECTION TO DISP.       -1.178E-05   AT NODE         25   DOF  1
   INSTANCE: PLATE-1                                                                         
          THE FORCE     EQUILIBRIUM EQUATIONS HAVE CONVERGED

 AVERAGE MOMENT                     2.799E+07   TIME AVG. MOMENT      5.329E+06
 ALL MOMENT    RESIDUALS ARE ZERO
 LARGEST INCREMENT OF ROTATION      2.129E-33   AT NODE          1   DOF  6
   INSTANCE: RIGID_PRESS-1                                                                   
 LARGEST CORRECTION TO ROTATION     5.481E-34   AT NODE          1   DOF  6
   INSTANCE: RIGID_PRESS-1                                                                   
          THE MOMENT    EQUILIBRIUM RESPONSE WAS LINEAR IN THIS INCREMENT
          TIME INCREMENT MAY NOW INCREASE TO    0.438    

 ITERATION SUMMARY FOR THE INCREMENT:   1 TOTAL ITERATIONS, OF WHICH
   0 ARE SEVERE DISCONTINUITY ITERATIONS AND  1 ARE EQUILIBRIUM ITERATIONS.

 TIME INCREMENT COMPLETED  0.292    ,  FRACTION OF STEP COMPLETED  1.750E-02
 STEP TIME COMPLETED       0.875    ,  TOTAL TIME COMPLETED        0.875    


  INCREMENT    17 STARTS. ATTEMPT NUMBER  1, TIME INCREMENT  0.438    

  NUMBER OF EQUATIONS =      2257     NUMBER OF FLOATING PT. OPERATIONS =  1.93E+06

     CHECK POINT   START OF SOLVER    

     CHECK POINT  END OF SOLVER       

       ELAPSED USER TIME (SEC)      =  2.00000E-02
       ELAPSED SYSTEM TIME (SEC)    =   0.0000    
       ELAPSED TOTAL CPU TIME (SEC) =  2.00000E-02
       ELAPSED WALLCLOCK TIME (SEC) =          0
 

 ***WARNING: THE SYSTEM MATRIX HAS 1 NEGATIVE EIGENVALUES.
             EXPLANATIONS ARE SUGGESTED AFTER THE FIRST OCCURRENCE OF THIS MESSAGE.

               CONVERGENCE CHECKS FOR EQUILIBRIUM ITERATION     1

   MAX. PENETRATION ERROR 17.4274E-09  AT NODE PLATE-1.26 OF CONTACT PAIR 
   (ASSEMBLY_S_SURF-1,ASSEMBLY_RIGID_PRESS-1_SURF-3)
   MAX. CONTACT FORCE ERROR 458.307E-06   AT NODE PLATE-1.25 OF CONTACT PAIR 
   (ASSEMBLY_S_SURF-1,ASSEMBLY_RIGID_PRESS-1_SURF-3)
          THE CONTACT CONSTRAINTS HAVE CONVERGED.

 AVERAGE FORCE                      3.648E+04   TIME AVG. FORCE       6.547E+03
 LARGEST RESIDUAL FORCE             -1.24       AT NODE         26   DOF  2
   INSTANCE: PLATE-1                                                                         
 LARGEST INCREMENT OF DISP.        -0.438       AT NODE          1   DOF  2
   INSTANCE: RIGID_PRESS-1                                                                   
 LARGEST CORRECTION TO DISP.       -2.406E-05   AT NODE         25   DOF  1
   INSTANCE: PLATE-1                                                                         
          THE FORCE     EQUILIBRIUM EQUATIONS HAVE CONVERGED

 AVERAGE MOMENT                     4.200E+07   TIME AVG. MOMENT      7.486E+06
 ALL MOMENT    RESIDUALS ARE ZERO
 LARGEST INCREMENT OF ROTATION      4.043E-33   AT NODE          1   DOF  6
   INSTANCE: RIGID_PRESS-1                                                                   
 LARGEST CORRECTION TO ROTATION     8.494E-34   AT NODE          1   DOF  6
   INSTANCE: RIGID_PRESS-1                                                                   
          THE MOMENT    EQUILIBRIUM RESPONSE WAS LINEAR IN THIS INCREMENT
          TIME INCREMENT MAY NOW INCREASE TO    0.657    

 ITERATION SUMMARY FOR THE INCREMENT:   1 TOTAL ITERATIONS, OF WHICH
   0 ARE SEVERE DISCONTINUITY ITERATIONS AND  1 ARE EQUILIBRIUM ITERATIONS.

 TIME INCREMENT COMPLETED  0.438    ,  FRACTION OF STEP COMPLETED  2.625E-02
 STEP TIME COMPLETED        1.31    ,  TOTAL TIME COMPLETED         1.31    


  INCREMENT    18 STARTS. ATTEMPT NUMBER  1, TIME INCREMENT  0.657    

  NUMBER OF EQUATIONS =      2257     NUMBER OF FLOATING PT. OPERATIONS =  1.93E+06

     CHECK POINT   START OF SOLVER    

     CHECK POINT  END OF SOLVER       

       ELAPSED USER TIME (SEC)      =  2.00000E-02
       ELAPSED SYSTEM TIME (SEC)    =   0.0000    
       ELAPSED TOTAL CPU TIME (SEC) =  2.00000E-02
       ELAPSED WALLCLOCK TIME (SEC) =          0
 

 ***WARNING: THE SYSTEM MATRIX HAS 1 NEGATIVE EIGENVALUES.
             EXPLANATIONS ARE SUGGESTED AFTER THE FIRST OCCURRENCE OF THIS MESSAGE.

               CONVERGENCE CHECKS FOR EQUILIBRIUM ITERATION     1

   MAX. PENETRATION ERROR 49.7333E-09  AT NODE PLATE-1.26 OF CONTACT PAIR 
   (ASSEMBLY_S_SURF-1,ASSEMBLY_RIGID_PRESS-1_SURF-3)
   MAX. CONTACT FORCE ERROR 1.34106E-03 AT NODE PLATE-1.25 OF CONTACT PAIR 
   (ASSEMBLY_S_SURF-1,ASSEMBLY_RIGID_PRESS-1_SURF-3)
          THE CONTACT CONSTRAINTS HAVE CONVERGED.

 AVERAGE FORCE                      5.446E+04   TIME AVG. FORCE       9.208E+03
 LARGEST RESIDUAL FORCE             -3.35       AT NODE         26   DOF  2
   INSTANCE: PLATE-1                                                                         
 LARGEST INCREMENT OF DISP.        -0.657       AT NODE          1   DOF  2
   INSTANCE: RIGID_PRESS-1                                                                   
 LARGEST CORRECTION TO DISP.       -4.656E-05   AT NODE         26   DOF  1
   INSTANCE: PLATE-1                                                                         
          THE FORCE     EQUILIBRIUM EQUATIONS HAVE CONVERGED

 AVERAGE MOMENT                     6.302E+07   TIME AVG. MOMENT      1.057E+07
 ALL MOMENT    RESIDUALS ARE ZERO
 LARGEST INCREMENT OF ROTATION      6.929E-33   AT NODE          1   DOF  6
   INSTANCE: RIGID_PRESS-1                                                                   
 LARGEST CORRECTION TO ROTATION     8.640E-34   AT NODE          1   DOF  6
   INSTANCE: RIGID_PRESS-1                                                                   
          THE MOMENT    EQUILIBRIUM RESPONSE WAS LINEAR IN THIS INCREMENT
          TIME INCREMENT MAY NOW INCREASE TO    0.985    

 ITERATION SUMMARY FOR THE INCREMENT:   1 TOTAL ITERATIONS, OF WHICH
   0 ARE SEVERE DISCONTINUITY ITERATIONS AND  1 ARE EQUILIBRIUM ITERATIONS.

 TIME INCREMENT COMPLETED  0.657    ,  FRACTION OF STEP COMPLETED  3.939E-02
 STEP TIME COMPLETED        1.97    ,  TOTAL TIME COMPLETED         1.97    


  INCREMENT    19 STARTS. ATTEMPT NUMBER  1, TIME INCREMENT  0.985    

  NUMBER OF EQUATIONS =      2257     NUMBER OF FLOATING PT. OPERATIONS =  1.93E+06

     CHECK POINT   START OF SOLVER    

     CHECK POINT  END OF SOLVER       

       ELAPSED USER TIME (SEC)      =  2.00000E-02
       ELAPSED SYSTEM TIME (SEC)    =   0.0000    
       ELAPSED TOTAL CPU TIME (SEC) =  2.00000E-02
       ELAPSED WALLCLOCK TIME (SEC) =          0
 

 ***WARNING: THE SYSTEM MATRIX HAS 1 NEGATIVE EIGENVALUES.
             EXPLANATIONS ARE SUGGESTED AFTER THE FIRST OCCURRENCE OF THIS MESSAGE.

               CONVERGENCE CHECKS FOR EQUILIBRIUM ITERATION     1

   MAX. PENETRATION ERROR 130.613E-09   AT NODE PLATE-1.26 OF CONTACT PAIR 
   (ASSEMBLY_S_SURF-1,ASSEMBLY_RIGID_PRESS-1_SURF-3)
   MAX. CONTACT FORCE ERROR 3.64664E-03 AT NODE PLATE-1.25 OF CONTACT PAIR 
   (ASSEMBLY_S_SURF-1,ASSEMBLY_RIGID_PRESS-1_SURF-3)
          THE CONTACT CONSTRAINTS HAVE CONVERGED.

 AVERAGE FORCE                      8.128E+04   TIME AVG. FORCE       1.300E+04
 LARGEST RESIDUAL FORCE             -8.06       AT NODE         26   DOF  2
   INSTANCE: PLATE-1                                                                         
 LARGEST INCREMENT OF DISP.        -0.985       AT NODE          1   DOF  2
   INSTANCE: RIGID_PRESS-1                                                                   
 LARGEST CORRECTION TO DISP.       -8.234E-05   AT NODE        407   DOF  1
   INSTANCE: PLATE-1                                                                         
          THE FORCE     EQUILIBRIUM EQUATIONS HAVE CONVERGED

 AVERAGE MOMENT                     9.457E+07   TIME AVG. MOMENT      1.499E+07
 ALL MOMENT    RESIDUALS ARE ZERO
 LARGEST INCREMENT OF ROTATION      9.889E-33   AT NODE          1   DOF  6
   INSTANCE: RIGID_PRESS-1                                                                   
 LARGEST CORRECTION TO ROTATION    -5.041E-34   AT NODE          1   DOF  6
   INSTANCE: RIGID_PRESS-1                                                                   
          THE MOMENT    EQUILIBRIUM RESPONSE WAS LINEAR IN THIS INCREMENT
          TIME INCREMENT MAY NOW INCREASE TO     1.48    

 ITERATION SUMMARY FOR THE INCREMENT:   1 TOTAL ITERATIONS, OF WHICH
   0 ARE SEVERE DISCONTINUITY ITERATIONS AND  1 ARE EQUILIBRIUM ITERATIONS.

 TIME INCREMENT COMPLETED  0.985    ,  FRACTION OF STEP COMPLETED  5.910E-02
 STEP TIME COMPLETED        2.95    ,  TOTAL TIME COMPLETED         2.95    


  INCREMENT    20 STARTS. ATTEMPT NUMBER  1, TIME INCREMENT   1.48    

  NUMBER OF EQUATIONS =      2257     NUMBER OF FLOATING PT. OPERATIONS =  1.93E+06

     CHECK POINT   START OF SOLVER    

     CHECK POINT  END OF SOLVER       

       ELAPSED USER TIME (SEC)      =  1.00000E-02
       ELAPSED SYSTEM TIME (SEC)    =   0.0000    
       ELAPSED TOTAL CPU TIME (SEC) =  1.00000E-02
       ELAPSED WALLCLOCK TIME (SEC) =          0
 

 ***WARNING: THE SYSTEM MATRIX HAS 1 NEGATIVE EIGENVALUES.
             EXPLANATIONS ARE SUGGESTED AFTER THE FIRST OCCURRENCE OF THIS MESSAGE.

               CONVERGENCE CHECKS FOR EQUILIBRIUM ITERATION     1

   MAX. PENETRATION ERROR 314.081E-09   AT NODE PLATE-1.26 OF CONTACT PAIR 
   (ASSEMBLY_S_SURF-1,ASSEMBLY_RIGID_PRESS-1_SURF-3)
   MAX. CONTACT FORCE ERROR 9.11111E-03 AT NODE PLATE-1.25 OF CONTACT PAIR 
   (ASSEMBLY_S_SURF-1,ASSEMBLY_RIGID_PRESS-1_SURF-3)
          THE CONTACT CONSTRAINTS HAVE CONVERGED.

 AVERAGE FORCE                      1.222E+05   TIME AVG. FORCE       1.846E+04
 LARGEST RESIDUAL FORCE             -16.2       AT NODE         26   DOF  2
   INSTANCE: PLATE-1                                                                         
 LARGEST INCREMENT OF DISP.         -1.48       AT NODE          1   DOF  2
   INSTANCE: RIGID_PRESS-1                                                                   
 LARGEST CORRECTION TO DISP.       -1.265E-04   AT NODE        407   DOF  1
   INSTANCE: PLATE-1                                                                         
          THE FORCE     EQUILIBRIUM EQUATIONS HAVE CONVERGED

 AVERAGE MOMENT                     1.419E+08   TIME AVG. MOMENT      2.134E+07
 ALL MOMENT    RESIDUALS ARE ZERO
 LARGEST INCREMENT OF ROTATION      9.707E-33   AT NODE          1   DOF  6
   INSTANCE: RIGID_PRESS-1                                                                   
 LARGEST CORRECTION TO ROTATION    -5.126E-33   AT NODE          1   DOF  6
   INSTANCE: RIGID_PRESS-1                                                                   
          THE MOMENT    EQUILIBRIUM RESPONSE WAS LINEAR IN THIS INCREMENT
          TIME INCREMENT MAY NOW INCREASE TO     2.22    

 ITERATION SUMMARY FOR THE INCREMENT:   1 TOTAL ITERATIONS, OF WHICH
   0 ARE SEVERE DISCONTINUITY ITERATIONS AND  1 ARE EQUILIBRIUM ITERATIONS.

 TIME INCREMENT COMPLETED   1.48    ,  FRACTION OF STEP COMPLETED  8.865E-02
 STEP TIME COMPLETED        4.43    ,  TOTAL TIME COMPLETED         4.43    


  INCREMENT    21 STARTS. ATTEMPT NUMBER  1, TIME INCREMENT   2.22    

  NUMBER OF EQUATIONS =      2257     NUMBER OF FLOATING PT. OPERATIONS =  1.93E+06

     CHECK POINT   START OF SOLVER    

     CHECK POINT  END OF SOLVER       

       ELAPSED USER TIME (SEC)      =  1.00000E-02
       ELAPSED SYSTEM TIME (SEC)    =   0.0000    
       ELAPSED TOTAL CPU TIME (SEC) =  1.00000E-02
       ELAPSED WALLCLOCK TIME (SEC) =          0
 

 ***WARNING: THE SYSTEM MATRIX HAS 1 NEGATIVE EIGENVALUES.
             EXPLANATIONS ARE SUGGESTED AFTER THE FIRST OCCURRENCE OF THIS MESSAGE.

               CONVERGENCE CHECKS FOR EQUILIBRIUM ITERATION     1

   MAX. PENETRATION ERROR 809.967E-09   AT NODE PLATE-1.26 OF CONTACT PAIR 
   (ASSEMBLY_S_SURF-1,ASSEMBLY_RIGID_PRESS-1_SURF-3)
   MAX. CONTACT FORCE ERROR 24.0211E-03  AT NODE PLATE-1.25 OF CONTACT PAIR 
   (ASSEMBLY_S_SURF-1,ASSEMBLY_RIGID_PRESS-1_SURF-3)
          THE CONTACT CONSTRAINTS HAVE CONVERGED.

 AVERAGE FORCE                      1.850E+05   TIME AVG. FORCE       2.639E+04
 LARGEST RESIDUAL FORCE              82.0       AT NODE         25   DOF  2
   INSTANCE: PLATE-1                                                                         
 LARGEST INCREMENT OF DISP.         -2.22       AT NODE          1   DOF  2
   INSTANCE: RIGID_PRESS-1                                                                   
 LARGEST CORRECTION TO DISP.        2.277E-04   AT NODE         26   DOF  2
   INSTANCE: PLATE-1                                                                         
          THE FORCE     EQUILIBRIUM EQUATIONS HAVE CONVERGED

 AVERAGE MOMENT                     2.200E+08   TIME AVG. MOMENT      3.080E+07
 ALL MOMENT    RESIDUALS ARE ZERO
 LARGEST INCREMENT OF ROTATION      3.029E-33   AT NODE          1   DOF  6
   INSTANCE: RIGID_PRESS-1                                                                   
 LARGEST CORRECTION TO ROTATION    -1.153E-32   AT NODE          1   DOF  6
   INSTANCE: RIGID_PRESS-1                                                                   
          THE MOMENT    EQUILIBRIUM RESPONSE WAS LINEAR IN THIS INCREMENT
          TIME INCREMENT MAY NOW INCREASE TO     3.33    

 ITERATION SUMMARY FOR THE INCREMENT:   1 TOTAL ITERATIONS, OF WHICH
   0 ARE SEVERE DISCONTINUITY ITERATIONS AND  1 ARE EQUILIBRIUM ITERATIONS.

 TIME INCREMENT COMPLETED   2.22    ,  FRACTION OF STEP COMPLETED  0.133    
 STEP TIME COMPLETED        6.65    ,  TOTAL TIME COMPLETED         6.65    


  INCREMENT    22 STARTS. ATTEMPT NUMBER  1, TIME INCREMENT   3.33    

  NUMBER OF EQUATIONS =      2257     NUMBER OF FLOATING PT. OPERATIONS =  1.93E+06

     CHECK POINT   START OF SOLVER    

     CHECK POINT  END OF SOLVER       

       ELAPSED USER TIME (SEC)      =  1.00000E-02
       ELAPSED SYSTEM TIME (SEC)    =   0.0000    
       ELAPSED TOTAL CPU TIME (SEC) =  1.00000E-02
       ELAPSED WALLCLOCK TIME (SEC) =          0
 

 ***WARNING: THE SYSTEM MATRIX HAS 1 NEGATIVE EIGENVALUES.
             EXPLANATIONS ARE SUGGESTED AFTER THE FIRST OCCURRENCE OF THIS MESSAGE.

               CONVERGENCE CHECKS FOR EQUILIBRIUM ITERATION     1

   MAX. PENETRATION ERROR 1.96609E-03 AT NODE PLATE-1.324 OF CONTACT PAIR 
   (ASSEMBLY_S_SURF-1,ASSEMBLY_RIGID_PRESS-1_SURF-3)
   MAX. CONTACT FORCE ERROR 80.3431      AT NODE PLATE-1.324 OF CONTACT PAIR 
   (ASSEMBLY_S_SURF-1,ASSEMBLY_RIGID_PRESS-1_SURF-3)
          THE CONTACT CONSTRAINTS HAVE CONVERGED.

 AVERAGE FORCE                      2.690E+05   TIME AVG. FORCE       3.742E+04
 LARGEST RESIDUAL FORCE             8.407E+05   AT NODE        798   DOF  2
   INSTANCE: PLATE-1                                                                         
 LARGEST INCREMENT OF DISP.         -3.33       AT NODE          1   DOF  2
   INSTANCE: RIGID_PRESS-1                                                                   
 LARGEST CORRECTION TO DISP.        0.556       AT NODE        187   DOF  1
   INSTANCE: PLATE-1                                                                         
          FORCE     EQUILIBRIUM NOT ACHIEVED WITHIN TOLERANCE.

 AVERAGE MOMENT                     3.234E+08   TIME AVG. MOMENT      4.410E+07
 ALL MOMENT    RESIDUALS ARE ZERO
 LARGEST INCREMENT OF ROTATION      1.865E-33   AT NODE          1   DOF  6
   INSTANCE: RIGID_PRESS-1                                                                   
 LARGEST CORRECTION TO ROTATION    -2.678E-33   AT NODE          1   DOF  6
   INSTANCE: RIGID_PRESS-1                                                                   
          THE MOMENT    EQUILIBRIUM RESPONSE WAS LINEAR IN THIS INCREMENT

  NUMBER OF EQUATIONS =      2257     NUMBER OF FLOATING PT. OPERATIONS =  1.93E+06

     CHECK POINT   START OF SOLVER    

     CHECK POINT  END OF SOLVER       

       ELAPSED USER TIME (SEC)      =  1.00000E-02
       ELAPSED SYSTEM TIME (SEC)    =   0.0000    
       ELAPSED TOTAL CPU TIME (SEC) =  1.00000E-02
       ELAPSED WALLCLOCK TIME (SEC) =          1
 

 ***WARNING: THE SYSTEM MATRIX HAS 1 NEGATIVE EIGENVALUES.
             EXPLANATIONS ARE SUGGESTED AFTER THE FIRST OCCURRENCE OF THIS MESSAGE.

               CONVERGENCE CHECKS FOR EQUILIBRIUM ITERATION     2

   MAX. PENETRATION ERROR 14.4596E-03  AT NODE PLATE-1.25 OF CONTACT PAIR 
   (ASSEMBLY_S_SURF-1,ASSEMBLY_RIGID_PRESS-1_SURF-3)
   MAX. CONTACT FORCE ERROR 600.911       AT NODE PLATE-1.25 OF CONTACT PAIR 
   (ASSEMBLY_S_SURF-1,ASSEMBLY_RIGID_PRESS-1_SURF-3)
          THE CONTACT CONSTRAINTS HAVE CONVERGED.

 AVERAGE FORCE                      2.485E+05   TIME AVG. FORCE       3.649E+04
 LARGEST RESIDUAL FORCE             4.543E+05   AT NODE        324   DOF  2
   INSTANCE: PLATE-1                                                                         
 LARGEST INCREMENT OF DISP.         -3.33       AT NODE          1   DOF  2
   INSTANCE: RIGID_PRESS-1                                                                   
 LARGEST CORRECTION TO DISP.        -1.51       AT NODE         26   DOF  1
   INSTANCE: PLATE-1                                                                         
          FORCE     EQUILIBRIUM NOT ACHIEVED WITHIN TOLERANCE.

 AVERAGE MOMENT                     2.986E+08   TIME AVG. MOMENT      4.297E+07
 ALL MOMENT    RESIDUALS ARE ZERO
 LARGEST INCREMENT OF ROTATION      6.544E-33   AT NODE          1   DOF  6
   INSTANCE: RIGID_PRESS-1                                                                   
 LARGEST CORRECTION TO ROTATION     4.679E-33   AT NODE          1   DOF  6
   INSTANCE: RIGID_PRESS-1                                                                   
          THE MOMENT    EQUILIBRIUM EQUATIONS HAVE CONVERGED

  NUMBER OF EQUATIONS =      2257     NUMBER OF FLOATING PT. OPERATIONS =  1.93E+06

     CHECK POINT   START OF SOLVER    

     CHECK POINT  END OF SOLVER       

       ELAPSED USER TIME (SEC)      =  1.00000E-02
       ELAPSED SYSTEM TIME (SEC)    =  1.00000E-02
       ELAPSED TOTAL CPU TIME (SEC) =  2.00000E-02
       ELAPSED WALLCLOCK TIME (SEC) =          0
 

 ***WARNING: THE SYSTEM MATRIX HAS 1 NEGATIVE EIGENVALUES.
             EXPLANATIONS ARE SUGGESTED AFTER THE FIRST OCCURRENCE OF THIS MESSAGE.

               CONVERGENCE CHECKS FOR EQUILIBRIUM ITERATION     3

   MAX. PENETRATION ERROR 16.0593E-03  AT NODE PLATE-1.25 OF CONTACT PAIR 
   (ASSEMBLY_S_SURF-1,ASSEMBLY_RIGID_PRESS-1_SURF-3)
   MAX. CONTACT FORCE ERROR 682.386       AT NODE PLATE-1.25 OF CONTACT PAIR 
   (ASSEMBLY_S_SURF-1,ASSEMBLY_RIGID_PRESS-1_SURF-3)
          THE CONTACT CONSTRAINTS HAVE CONVERGED.

 AVERAGE FORCE                      2.441E+05   TIME AVG. FORCE       3.629E+04
 LARGEST RESIDUAL FORCE            -3.935E+06   AT NODE         20   DOF  2
   INSTANCE: PLATE-1                                                                         
 LARGEST INCREMENT OF DISP.         -3.33       AT NODE          1   DOF  2
   INSTANCE: RIGID_PRESS-1                                                                   
 LARGEST CORRECTION TO DISP.       -0.727       AT NODE        173   DOF  1
   INSTANCE: PLATE-1                                                                         
          FORCE     EQUILIBRIUM NOT ACHIEVED WITHIN TOLERANCE.

 AVERAGE MOMENT                     2.927E+08   TIME AVG. MOMENT      4.270E+07
 ALL MOMENT    RESIDUALS ARE ZERO
 LARGEST INCREMENT OF ROTATION     -4.031E-32   AT NODE          1   DOF  6
   INSTANCE: RIGID_PRESS-1                                                                   
 LARGEST CORRECTION TO ROTATION    -4.686E-32   AT NODE          1   DOF  6
   INSTANCE: RIGID_PRESS-1                                                                   
          THE MOMENT    EQUILIBRIUM EQUATIONS HAVE CONVERGED

  NUMBER OF EQUATIONS =      2257     NUMBER OF FLOATING PT. OPERATIONS =  1.93E+06

     CHECK POINT   START OF SOLVER    

     CHECK POINT  END OF SOLVER       

       ELAPSED USER TIME (SEC)      =  2.00000E-02
       ELAPSED SYSTEM TIME (SEC)    =   0.0000    
       ELAPSED TOTAL CPU TIME (SEC) =  2.00000E-02
       ELAPSED WALLCLOCK TIME (SEC) =          0
 

 ***WARNING: THE SYSTEM MATRIX HAS 3 NEGATIVE EIGENVALUES.
             EXPLANATIONS ARE SUGGESTED AFTER THE FIRST OCCURRENCE OF THIS MESSAGE.
   ELEMENT PLATE-1.3 IS DISTORTING EXCESSIVELY.
   ELEMENT PLATE-1.3 IS DISTORTING EXCESSIVELY.
   ELEMENT PLATE-1.5 IS DISTORTING EXCESSIVELY.
   ELEMENT PLATE-1.5 IS DISTORTING EXCESSIVELY.
   ELEMENT PLATE-1.6 IS DISTORTING EXCESSIVELY.
   ELEMENT PLATE-1.6 IS DISTORTING EXCESSIVELY.
   ELEMENT PLATE-1.7 IS DISTORTING EXCESSIVELY.
   ELEMENT PLATE-1.7 IS DISTORTING EXCESSIVELY.
   ELEMENT PLATE-1.9 IS DISTORTING EXCESSIVELY.
   ELEMENT PLATE-1.9 IS DISTORTING EXCESSIVELY.
   ELEMENT PLATE-1.12 IS DISTORTING EXCESSIVELY.
   ELEMENT PLATE-1.12 IS DISTORTING EXCESSIVELY.
   ELEMENT PLATE-1.16 IS DISTORTING EXCESSIVELY.
   ELEMENT PLATE-1.16 IS DISTORTING EXCESSIVELY.
   ELEMENT PLATE-1.18 IS DISTORTING EXCESSIVELY.
   ELEMENT PLATE-1.18 IS DISTORTING EXCESSIVELY.
   ELEMENT PLATE-1.19 IS DISTORTING EXCESSIVELY.
   ELEMENT PLATE-1.19 IS DISTORTING EXCESSIVELY.
   ELEMENT PLATE-1.21 IS DISTORTING EXCESSIVELY.
   ELEMENT PLATE-1.22 IS DISTORTING EXCESSIVELY.
   ELEMENT PLATE-1.22 IS DISTORTING EXCESSIVELY.
   ELEMENT PLATE-1.24 IS DISTORTING EXCESSIVELY.
   ELEMENT PLATE-1.24 IS DISTORTING EXCESSIVELY.
   ELEMENT PLATE-1.25 IS DISTORTING EXCESSIVELY.
   ELEMENT PLATE-1.25 IS DISTORTING EXCESSIVELY.
   ELEMENT PLATE-1.26 IS DISTORTING EXCESSIVELY.
   ELEMENT PLATE-1.26 IS DISTORTING EXCESSIVELY.
   ELEMENT PLATE-1.27 IS DISTORTING EXCESSIVELY.
   ELEMENT PLATE-1.27 IS DISTORTING EXCESSIVELY.
   ELEMENT PLATE-1.28 IS DISTORTING EXCESSIVELY.
   ELEMENT PLATE-1.28 IS DISTORTING EXCESSIVELY.
   ELEMENT PLATE-1.30 IS DISTORTING EXCESSIVELY.
   ELEMENT PLATE-1.30 IS DISTORTING EXCESSIVELY.
   ELEMENT PLATE-1.31 IS DISTORTING EXCESSIVELY.
   ELEMENT PLATE-1.31 IS DISTORTING EXCESSIVELY.
   ELEMENT PLATE-1.34 IS DISTORTING EXCESSIVELY.
   ELEMENT PLATE-1.34 IS DISTORTING EXCESSIVELY.
   ELEMENT PLATE-1.35 IS DISTORTING EXCESSIVELY.
   ELEMENT PLATE-1.35 IS DISTORTING EXCESSIVELY.
   ELEMENT PLATE-1.36 IS DISTORTING EXCESSIVELY.
   ELEMENT PLATE-1.36 IS DISTORTING EXCESSIVELY.
   ELEMENT PLATE-1.39 IS DISTORTING EXCESSIVELY.
   ELEMENT PLATE-1.39 IS DISTORTING EXCESSIVELY.
   ELEMENT PLATE-1.40 IS DISTORTING EXCESSIVELY.
   ELEMENT PLATE-1.40 IS DISTORTING EXCESSIVELY.
   ELEMENT PLATE-1.42 IS DISTORTING EXCESSIVELY.
   ELEMENT PLATE-1.42 IS DISTORTING EXCESSIVELY.
   ELEMENT PLATE-1.43 IS DISTORTING EXCESSIVELY.
   ELEMENT PLATE-1.43 IS DISTORTING EXCESSIVELY.
   ELEMENT PLATE-1.44 IS DISTORTING EXCESSIVELY.
   ELEMENT PLATE-1.45 IS DISTORTING EXCESSIVELY.
   ELEMENT PLATE-1.47 IS DISTORTING EXCESSIVELY.
   ELEMENT PLATE-1.47 IS DISTORTING EXCESSIVELY.
   ELEMENT PLATE-1.50 IS DISTORTING EXCESSIVELY.
   ELEMENT PLATE-1.51 IS DISTORTING EXCESSIVELY.
   ELEMENT PLATE-1.53 IS DISTORTING EXCESSIVELY.
   ELEMENT PLATE-1.54 IS DISTORTING EXCESSIVELY.
   ELEMENT PLATE-1.54 IS DISTORTING EXCESSIVELY.
   ELEMENT PLATE-1.55 IS DISTORTING EXCESSIVELY.
   ELEMENT PLATE-1.55 IS DISTORTING EXCESSIVELY.
   ELEMENT PLATE-1.56 IS DISTORTING EXCESSIVELY.
   ELEMENT PLATE-1.56 IS DISTORTING EXCESSIVELY.
   ELEMENT PLATE-1.62 IS DISTORTING EXCESSIVELY.
   ELEMENT PLATE-1.62 IS DISTORTING EXCESSIVELY.
   ELEMENT PLATE-1.65 IS DISTORTING EXCESSIVELY.
   ELEMENT PLATE-1.69 IS DISTORTING EXCESSIVELY.
   ELEMENT PLATE-1.70 IS DISTORTING EXCESSIVELY.
   ELEMENT PLATE-1.76 IS DISTORTING EXCESSIVELY.
   ELEMENT PLATE-1.78 IS DISTORTING EXCESSIVELY.
   ELEMENT PLATE-1.78 IS DISTORTING EXCESSIVELY.
   ELEMENT PLATE-1.481 IS DISTORTING EXCESSIVELY.
   ELEMENT PLATE-1.481 IS DISTORTING EXCESSIVELY.
   ELEMENT PLATE-1.482 IS DISTORTING EXCESSIVELY.
   ELEMENT PLATE-1.482 IS DISTORTING EXCESSIVELY.
   ELEMENT PLATE-1.484 IS DISTORTING EXCESSIVELY.
   ELEMENT PLATE-1.484 IS DISTORTING EXCESSIVELY.
   ELEMENT PLATE-1.487 IS DISTORTING EXCESSIVELY.
   ELEMENT PLATE-1.487 IS DISTORTING EXCESSIVELY.
   ELEMENT PLATE-1.490 IS DISTORTING EXCESSIVELY.
   ELEMENT PLATE-1.490 IS DISTORTING EXCESSIVELY.
   ELEMENT PLATE-1.492 IS DISTORTING EXCESSIVELY.
   ELEMENT PLATE-1.492 IS DISTORTING EXCESSIVELY.
   ELEMENT PLATE-1.493 IS DISTORTING EXCESSIVELY.
   ELEMENT PLATE-1.493 IS DISTORTING EXCESSIVELY.
   ELEMENT PLATE-1.495 IS DISTORTING EXCESSIVELY.
   ELEMENT PLATE-1.495 IS DISTORTING EXCESSIVELY.
   ELEMENT PLATE-1.499 IS DISTORTING EXCESSIVELY.
   ELEMENT PLATE-1.499 IS DISTORTING EXCESSIVELY.
   ELEMENT PLATE-1.501 IS DISTORTING EXCESSIVELY.
   ELEMENT PLATE-1.501 IS DISTORTING EXCESSIVELY.
   ELEMENT PLATE-1.502 IS DISTORTING EXCESSIVELY.
   ELEMENT PLATE-1.504 IS DISTORTING EXCESSIVELY.
   ELEMENT PLATE-1.504 IS DISTORTING EXCESSIVELY.
   ELEMENT PLATE-1.505 IS DISTORTING EXCESSIVELY.
   ELEMENT PLATE-1.505 IS DISTORTING EXCESSIVELY.
   ELEMENT PLATE-1.507 IS DISTORTING EXCESSIVELY.
   ELEMENT PLATE-1.507 IS DISTORTING EXCESSIVELY.
   ELEMENT PLATE-1.508 IS DISTORTING EXCESSIVELY.
   ELEMENT PLATE-1.508 IS DISTORTING EXCESSIVELY.
   ELEMENT PLATE-1.509 IS DISTORTING EXCESSIVELY.
   ELEMENT PLATE-1.509 IS DISTORTING EXCESSIVELY.
   ELEMENT PLATE-1.510 IS DISTORTING EXCESSIVELY.
   ELEMENT PLATE-1.510 IS DISTORTING EXCESSIVELY.
   ELEMENT PLATE-1.511 IS DISTORTING EXCESSIVELY.
   ELEMENT PLATE-1.511 IS DISTORTING EXCESSIVELY.
   ELEMENT PLATE-1.512 IS DISTORTING EXCESSIVELY.
   ELEMENT PLATE-1.512 IS DISTORTING EXCESSIVELY.
   ELEMENT PLATE-1.513 IS DISTORTING EXCESSIVELY.
   ELEMENT PLATE-1.513 IS DISTORTING EXCESSIVELY.
   ELEMENT PLATE-1.516 IS DISTORTING EXCESSIVELY.
   ELEMENT PLATE-1.516 IS DISTORTING EXCESSIVELY.
   ELEMENT PLATE-1.517 IS DISTORTING EXCESSIVELY.
   ELEMENT PLATE-1.517 IS DISTORTING EXCESSIVELY.
   ELEMENT PLATE-1.519 IS DISTORTING EXCESSIVELY.
   ELEMENT PLATE-1.519 IS DISTORTING EXCESSIVELY.
   ELEMENT PLATE-1.520 IS DISTORTING EXCESSIVELY.
   ELEMENT PLATE-1.520 IS DISTORTING EXCESSIVELY.
   ELEMENT PLATE-1.524 IS DISTORTING EXCESSIVELY.
   ELEMENT PLATE-1.524 IS DISTORTING EXCESSIVELY.
   ELEMENT PLATE-1.526 IS DISTORTING EXCESSIVELY.
   ELEMENT PLATE-1.527 IS DISTORTING EXCESSIVELY.
   ELEMENT PLATE-1.528 IS DISTORTING EXCESSIVELY.
   ELEMENT PLATE-1.528 IS DISTORTING EXCESSIVELY.
   ELEMENT PLATE-1.529 IS DISTORTING EXCESSIVELY.
   ELEMENT PLATE-1.529 IS DISTORTING EXCESSIVELY.
   ELEMENT PLATE-1.530 IS DISTORTING EXCESSIVELY.
   ELEMENT PLATE-1.532 IS DISTORTING EXCESSIVELY.
   ELEMENT PLATE-1.533 IS DISTORTING EXCESSIVELY.
   ELEMENT PLATE-1.539 IS DISTORTING EXCESSIVELY.
   ELEMENT PLATE-1.539 IS DISTORTING EXCESSIVELY.
   ELEMENT PLATE-1.540 IS DISTORTING EXCESSIVELY.
   ELEMENT PLATE-1.540 IS DISTORTING EXCESSIVELY.
   ELEMENT PLATE-1.542 IS DISTORTING EXCESSIVELY.
   ELEMENT PLATE-1.545 IS DISTORTING EXCESSIVELY.
   ELEMENT PLATE-1.545 IS DISTORTING EXCESSIVELY.
   ELEMENT PLATE-1.549 IS DISTORTING EXCESSIVELY.
   ELEMENT PLATE-1.550 IS DISTORTING EXCESSIVELY.
   ELEMENT PLATE-1.553 IS DISTORTING EXCESSIVELY.
   ELEMENT PLATE-1.553 IS DISTORTING EXCESSIVELY.
   ELEMENT PLATE-1.555 IS DISTORTING EXCESSIVELY.

 ***WARNING: THE STRAIN INCREMENT HAS EXCEEDED FIFTY TIMES THE STRAIN TO CAUSE 
             FIRST YIELD AT 2 POINTS

 ***WARNING: THE STRAIN INCREMENT IS SO LARGE THAT THE PROGRAM WILL NOT ATTEMPT 
             THE PLASTICITY CALCULATION AT 2 POINTS

 ***WARNING: EXCESSIVE DISTORTION AT A TOTAL OF 80 INTEGRATION POINTS IN SOLID 
             (CONTINUUM) ELEMENTS
 

 ***NOTE: ELEMENTS ARE DISTORTING EXCESSIVELY. CONVERGENCE IS JUDGED UNLIKELY.
 

 ***NOTE: MATERIAL CALCULATIONS FAILED TO CONVERGE OR WERE NOT ATTEMPTED AT ONE 
          OR MORE POINTS. CONVERGENCE IS JUDGED UNLIKELY.


  INCREMENT    22 STARTS. ATTEMPT NUMBER  2, TIME INCREMENT  0.831    

  NUMBER OF EQUATIONS =      2257     NUMBER OF FLOATING PT. OPERATIONS =  1.93E+06

     CHECK POINT   START OF SOLVER    

     CHECK POINT  END OF SOLVER       

       ELAPSED USER TIME (SEC)      =  2.00000E-02
       ELAPSED SYSTEM TIME (SEC)    =   0.0000    
       ELAPSED TOTAL CPU TIME (SEC) =  2.00000E-02
       ELAPSED WALLCLOCK TIME (SEC) =          0
 

 ***WARNING: THE SYSTEM MATRIX HAS 1 NEGATIVE EIGENVALUES.
             EXPLANATIONS ARE SUGGESTED AFTER THE FIRST OCCURRENCE OF THIS MESSAGE.

               CONVERGENCE CHECKS FOR EQUILIBRIUM ITERATION     1

   MAX. PENETRATION ERROR 307.630E-09   AT NODE PLATE-1.26 OF CONTACT PAIR 
   (ASSEMBLY_S_SURF-1,ASSEMBLY_RIGID_PRESS-1_SURF-3)
   MAX. CONTACT FORCE ERROR 9.14296E-03 AT NODE PLATE-1.25 OF CONTACT PAIR 
   (ASSEMBLY_S_SURF-1,ASSEMBLY_RIGID_PRESS-1_SURF-3)
          THE CONTACT CONSTRAINTS HAVE CONVERGED.

 AVERAGE FORCE                      2.153E+05   TIME AVG. FORCE       3.498E+04
 LARGEST RESIDUAL FORCE              40.5       AT NODE         25   DOF  2
   INSTANCE: PLATE-1                                                                         
 LARGEST INCREMENT OF DISP.        -0.831       AT NODE          1   DOF  2
   INSTANCE: RIGID_PRESS-1                                                                   
 LARGEST CORRECTION TO DISP.        9.643E-05   AT NODE         26   DOF  2
   INSTANCE: PLATE-1                                                                         
          THE FORCE     EQUILIBRIUM EQUATIONS HAVE CONVERGED

 AVERAGE MOMENT                     2.475E+08   TIME AVG. MOMENT      4.064E+07
 ALL MOMENT    RESIDUALS ARE ZERO
 LARGEST INCREMENT OF ROTATION      2.835E-34   AT NODE          1   DOF  6
   INSTANCE: RIGID_PRESS-1                                                                   
 LARGEST CORRECTION TO ROTATION    -8.523E-34   AT NODE          1   DOF  6
   INSTANCE: RIGID_PRESS-1                                                                   
          THE MOMENT    EQUILIBRIUM RESPONSE WAS LINEAR IN THIS INCREMENT
          TIME INCREMENT MAY NOW INCREASE TO     1.25    

 ITERATION SUMMARY FOR THE INCREMENT:   1 TOTAL ITERATIONS, OF WHICH
   0 ARE SEVERE DISCONTINUITY ITERATIONS AND  1 ARE EQUILIBRIUM ITERATIONS.

 TIME INCREMENT COMPLETED  0.831    ,  FRACTION OF STEP COMPLETED  0.150    
 STEP TIME COMPLETED        7.48    ,  TOTAL TIME COMPLETED         7.48    


  INCREMENT    23 STARTS. ATTEMPT NUMBER  1, TIME INCREMENT   1.25    

  NUMBER OF EQUATIONS =      2257     NUMBER OF FLOATING PT. OPERATIONS =  1.93E+06

     CHECK POINT   START OF SOLVER    

     CHECK POINT  END OF SOLVER       

       ELAPSED USER TIME (SEC)      =  2.00000E-02
       ELAPSED SYSTEM TIME (SEC)    =   0.0000    
       ELAPSED TOTAL CPU TIME (SEC) =  2.00000E-02
       ELAPSED WALLCLOCK TIME (SEC) =          0
 

 ***WARNING: THE SYSTEM MATRIX HAS 1 NEGATIVE EIGENVALUES.
             EXPLANATIONS ARE SUGGESTED AFTER THE FIRST OCCURRENCE OF THIS MESSAGE.

               CONVERGENCE CHECKS FOR EQUILIBRIUM ITERATION     1

   MAX. PENETRATION ERROR 12.0377E-06  AT NODE PLATE-1.323 OF CONTACT PAIR 
   (ASSEMBLY_S_SURF-1,ASSEMBLY_RIGID_PRESS-1_SURF-3)
   MAX. CONTACT FORCE ERROR 463.567E-03   AT NODE PLATE-1.324 OF CONTACT PAIR 
   (ASSEMBLY_S_SURF-1,ASSEMBLY_RIGID_PRESS-1_SURF-3)
          THE CONTACT CONSTRAINTS HAVE CONVERGED.

 AVERAGE FORCE                      2.578E+05   TIME AVG. FORCE       4.467E+04
 LARGEST RESIDUAL FORCE            -1.890E+04   AT NODE        370   DOF  2
   INSTANCE: PLATE-1                                                                         
 LARGEST INCREMENT OF DISP.         -1.25       AT NODE          1   DOF  2
   INSTANCE: RIGID_PRESS-1                                                                   
 LARGEST CORRECTION TO DISP.        7.220E-03   AT NODE        186   DOF  1
   INSTANCE: PLATE-1                                                                         
          FORCE     EQUILIBRIUM NOT ACHIEVED WITHIN TOLERANCE.

 AVERAGE MOMENT                     2.886E+08   TIME AVG. MOMENT      5.143E+07
 ALL MOMENT    RESIDUALS ARE ZERO
 LARGEST INCREMENT OF ROTATION     -4.863E-34   AT NODE          1   DOF  6
   INSTANCE: RIGID_PRESS-1                                                                   
 LARGEST CORRECTION TO ROTATION    -9.115E-34   AT NODE          1   DOF  6
   INSTANCE: RIGID_PRESS-1                                                                   
[...]

   MAX. PENETRATION ERROR 180.623E-06   AT NODE PLATE-1.25 OF CONTACT PAIR 
   (ASSEMBLY_S_SURF-1,ASSEMBLY_RIGID_PRESS-1_SURF-3)
   MAX. CONTACT FORCE ERROR 7.48191     AT NODE PLATE-1.25 OF CONTACT PAIR 
   (ASSEMBLY_S_SURF-1,ASSEMBLY_RIGID_PRESS-1_SURF-3)
          PENETRATION ERROR TOO LARGE COMPARED TO DISPLACEMENT INCREMENT.

 AVERAGE FORCE                      2.399E+05   TIME AVG. FORCE       9.939E+04
 LARGEST RESIDUAL FORCE             -753.       AT NODE        401   DOF  2
   INSTANCE: PLATE-1                                                                         
 LARGEST INCREMENT OF DISP.        -2.763E-02   AT NODE        407   DOF  1
   INSTANCE: PLATE-1                                                                         
 LARGEST CORRECTION TO DISP.       -9.653E-03   AT NODE        183   DOF  1
   INSTANCE: PLATE-1                                                                         
          FORCE     EQUILIBRIUM NOT ACHIEVED WITHIN TOLERANCE.

 AVERAGE MOMENT                     2.938E+08   TIME AVG. MOMENT      1.218E+08
 ALL MOMENT    RESIDUALS ARE ZERO
 LARGEST INCREMENT OF ROTATION      1.876E-31   AT NODE          1   DOF  6
   INSTANCE: RIGID_PRESS-1                                                                   
 LARGEST CORRECTION TO ROTATION     9.036E-32   AT NODE          1   DOF  6
   INSTANCE: RIGID_PRESS-1                                                                   
          THE MOMENT    EQUILIBRIUM EQUATIONS HAVE CONVERGED
 

 ***NOTE: THE SOLUTION APPEARS TO BE DIVERGING. CONVERGENCE IS JUDGED UNLIKELY.


  INCREMENT    32 STARTS. ATTEMPT NUMBER  4, TIME INCREMENT  6.850E-04

  NUMBER OF EQUATIONS =      2257     NUMBER OF FLOATING PT. OPERATIONS =  1.93E+06

     CHECK POINT   START OF SOLVER    

     CHECK POINT  END OF SOLVER       

       ELAPSED USER TIME (SEC)      =  2.00000E-02
       ELAPSED SYSTEM TIME (SEC)    =   0.0000    
       ELAPSED TOTAL CPU TIME (SEC) =  2.00000E-02
       ELAPSED WALLCLOCK TIME (SEC) =          0
 

 ***WARNING: THE SYSTEM MATRIX HAS 1 NEGATIVE EIGENVALUES.
             EXPLANATIONS ARE SUGGESTED AFTER THE FIRST OCCURRENCE OF THIS MESSAGE.

               CONVERGENCE CHECKS FOR EQUILIBRIUM ITERATION     1

   MAX. PENETRATION ERROR 9.30772E-06 AT NODE PLATE-1.25 OF CONTACT PAIR 
   (ASSEMBLY_S_SURF-1,ASSEMBLY_RIGID_PRESS-1_SURF-3)
   MAX. CONTACT FORCE ERROR 385.503E-03   AT NODE PLATE-1.25 OF CONTACT PAIR 
   (ASSEMBLY_S_SURF-1,ASSEMBLY_RIGID_PRESS-1_SURF-3)
          PENETRATION ERROR TOO LARGE COMPARED TO DISPLACEMENT INCREMENT.

 AVERAGE FORCE                      2.401E+05   TIME AVG. FORCE       9.940E+04
 LARGEST RESIDUAL FORCE             -358.       AT NODE        331   DOF  2
   INSTANCE: PLATE-1                                                                         
 LARGEST INCREMENT OF DISP.        -6.850E-04   AT NODE          1   DOF  2
   INSTANCE: RIGID_PRESS-1                                                                   
 LARGEST CORRECTION TO DISP.       -6.850E-04   AT NODE          1   DOF  2
   INSTANCE: RIGID_PRESS-1                                                                   
          DISP.    CORRECTION TOO LARGE COMPARED TO DISP.    INCREMENT

 AVERAGE MOMENT                     2.938E+08   TIME AVG. MOMENT      1.218E+08
 ALL MOMENT    RESIDUALS ARE ZERO
 LARGEST INCREMENT OF ROTATION      6.967E-33   AT NODE          1   DOF  6
   INSTANCE: RIGID_PRESS-1                                                                   
 LARGEST CORRECTION TO ROTATION     6.967E-33   AT NODE          1   DOF  6
   INSTANCE: RIGID_PRESS-1                                                                   
          THE MOMENT    EQUILIBRIUM RESPONSE WAS LINEAR IN THIS INCREMENT

  NUMBER OF EQUATIONS =      2257     NUMBER OF FLOATING PT. OPERATIONS =  1.93E+06

     CHECK POINT   START OF SOLVER    

     CHECK POINT  END OF SOLVER       

       ELAPSED USER TIME (SEC)      =  1.00000E-02
       ELAPSED SYSTEM TIME (SEC)    =   0.0000    
       ELAPSED TOTAL CPU TIME (SEC) =  1.00000E-02
       ELAPSED WALLCLOCK TIME (SEC) =          0
 

 ***WARNING: THE SYSTEM MATRIX HAS 1 NEGATIVE EIGENVALUES.
             EXPLANATIONS ARE SUGGESTED AFTER THE FIRST OCCURRENCE OF THIS MESSAGE.

               CONVERGENCE CHECKS FOR EQUILIBRIUM ITERATION     2

   MAX. PENETRATION ERROR 27.1113E-06  AT NODE PLATE-1.25 OF CONTACT PAIR 
   (ASSEMBLY_S_SURF-1,ASSEMBLY_RIGID_PRESS-1_SURF-3)
   MAX. CONTACT FORCE ERROR 1.12288     AT NODE PLATE-1.25 OF CONTACT PAIR 
   (ASSEMBLY_S_SURF-1,ASSEMBLY_RIGID_PRESS-1_SURF-3)
          PENETRATION ERROR TOO LARGE COMPARED TO DISPLACEMENT INCREMENT.

 AVERAGE FORCE                      2.400E+05   TIME AVG. FORCE       9.940E+04
 LARGEST RESIDUAL FORCE             -478.       AT NODE        761   DOF  2
   INSTANCE: PLATE-1                                                                         
 LARGEST INCREMENT OF DISP.        -1.905E-03   AT NODE        394   DOF  1
   INSTANCE: PLATE-1                                                                         
 LARGEST CORRECTION TO DISP.       -1.422E-03   AT NODE        394   DOF  1
   INSTANCE: PLATE-1                                                                         
          DISP.    CORRECTION TOO LARGE COMPARED TO DISP.    INCREMENT

 AVERAGE MOMENT                     2.938E+08   TIME AVG. MOMENT      1.218E+08
 ALL MOMENT    RESIDUALS ARE ZERO
 LARGEST INCREMENT OF ROTATION      2.046E-32   AT NODE          1   DOF  6
   INSTANCE: RIGID_PRESS-1                                                                   
 LARGEST CORRECTION TO ROTATION     1.349E-32   AT NODE          1   DOF  6
   INSTANCE: RIGID_PRESS-1                                                                   
          THE MOMENT    EQUILIBRIUM EQUATIONS HAVE CONVERGED

  NUMBER OF EQUATIONS =      2257     NUMBER OF FLOATING PT. OPERATIONS =  1.93E+06

     CHECK POINT   START OF SOLVER    

     CHECK POINT  END OF SOLVER       

       ELAPSED USER TIME (SEC)      =  2.00000E-02
       ELAPSED SYSTEM TIME (SEC)    =   0.0000    
       ELAPSED TOTAL CPU TIME (SEC) =  2.00000E-02
       ELAPSED WALLCLOCK TIME (SEC) =          0
 

 ***WARNING: THE SYSTEM MATRIX HAS 1 NEGATIVE EIGENVALUES.
             EXPLANATIONS ARE SUGGESTED AFTER THE FIRST OCCURRENCE OF THIS MESSAGE.

               CONVERGENCE CHECKS FOR EQUILIBRIUM ITERATION     3

   MAX. PENETRATION ERROR 80.5371E-06  AT NODE PLATE-1.25 OF CONTACT PAIR 
   (ASSEMBLY_S_SURF-1,ASSEMBLY_RIGID_PRESS-1_SURF-3)
   MAX. CONTACT FORCE ERROR 3.33565     AT NODE PLATE-1.25 OF CONTACT PAIR 
   (ASSEMBLY_S_SURF-1,ASSEMBLY_RIGID_PRESS-1_SURF-3)
          PENETRATION ERROR TOO LARGE COMPARED TO DISPLACEMENT INCREMENT.

 AVERAGE FORCE                      2.399E+05   TIME AVG. FORCE       9.940E+04
 LARGEST RESIDUAL FORCE              838.       AT NODE        735   DOF  2
   INSTANCE: PLATE-1                                                                         
 LARGEST INCREMENT OF DISP.        -6.112E-03   AT NODE        163   DOF  1
   INSTANCE: PLATE-1                                                                         
 LARGEST CORRECTION TO DISP.       -4.209E-03   AT NODE        163   DOF  1
   INSTANCE: PLATE-1                                                                         
          FORCE     EQUILIBRIUM NOT ACHIEVED WITHIN TOLERANCE.

 AVERAGE MOMENT                     2.938E+08   TIME AVG. MOMENT      1.218E+08
 ALL MOMENT    RESIDUALS ARE ZERO
 LARGEST INCREMENT OF ROTATION      5.916E-32   AT NODE          1   DOF  6
   INSTANCE: RIGID_PRESS-1                                                                   
 LARGEST CORRECTION TO ROTATION     3.871E-32   AT NODE          1   DOF  6
   INSTANCE: RIGID_PRESS-1                                                                   
          THE MOMENT    EQUILIBRIUM EQUATIONS HAVE CONVERGED

  NUMBER OF EQUATIONS =      2257     NUMBER OF FLOATING PT. OPERATIONS =  1.93E+06

     CHECK POINT   START OF SOLVER    

     CHECK POINT  END OF SOLVER       

       ELAPSED USER TIME (SEC)      =  1.00000E-02
       ELAPSED SYSTEM TIME (SEC)    =   0.0000    
       ELAPSED TOTAL CPU TIME (SEC) =  1.00000E-02
       ELAPSED WALLCLOCK TIME (SEC) =          0
 

 ***WARNING: THE SYSTEM MATRIX HAS 1 NEGATIVE EIGENVALUES.
             EXPLANATIONS ARE SUGGESTED AFTER THE FIRST OCCURRENCE OF THIS MESSAGE.

               CONVERGENCE CHECKS FOR EQUILIBRIUM ITERATION     4

   MAX. PENETRATION ERROR 189.799E-06   AT NODE PLATE-1.25 OF CONTACT PAIR 
   (ASSEMBLY_S_SURF-1,ASSEMBLY_RIGID_PRESS-1_SURF-3)
   MAX. CONTACT FORCE ERROR 7.86115     AT NODE PLATE-1.25 OF CONTACT PAIR 
   (ASSEMBLY_S_SURF-1,ASSEMBLY_RIGID_PRESS-1_SURF-3)
          PENETRATION ERROR TOO LARGE COMPARED TO DISPLACEMENT INCREMENT.

 AVERAGE FORCE                      2.401E+05   TIME AVG. FORCE       9.940E+04
 LARGEST RESIDUAL FORCE             2.509E+03   AT NODE        343   DOF  2
   INSTANCE: PLATE-1                                                                         
 LARGEST INCREMENT OF DISP.        -1.576E-02   AT NODE        164   DOF  1
   INSTANCE: PLATE-1                                                                         
 LARGEST CORRECTION TO DISP.       -9.784E-03   AT NODE        164   DOF  1
   INSTANCE: PLATE-1                                                                         
          FORCE     EQUILIBRIUM NOT ACHIEVED WITHIN TOLERANCE.

 AVERAGE MOMENT                     2.938E+08   TIME AVG. MOMENT      1.218E+08
 ALL MOMENT    RESIDUALS ARE ZERO
 LARGEST INCREMENT OF ROTATION      2.090E-31   AT NODE          1   DOF  6
   INSTANCE: RIGID_PRESS-1                                                                   
 LARGEST CORRECTION TO ROTATION     1.498E-31   AT NODE          1   DOF  6
   INSTANCE: RIGID_PRESS-1                                                                   
          THE MOMENT    EQUILIBRIUM EQUATIONS HAVE CONVERGED
 

 ***NOTE: THE SOLUTION APPEARS TO BE DIVERGING. CONVERGENCE IS JUDGED UNLIKELY.


  INCREMENT    32 STARTS. ATTEMPT NUMBER  5, TIME INCREMENT  1.712E-04

  NUMBER OF EQUATIONS =      2257     NUMBER OF FLOATING PT. OPERATIONS =  1.93E+06

     CHECK POINT   START OF SOLVER    

     CHECK POINT  END OF SOLVER       

       ELAPSED USER TIME (SEC)      =  1.00000E-02
       ELAPSED SYSTEM TIME (SEC)    =   0.0000    
       ELAPSED TOTAL CPU TIME (SEC) =  1.00000E-02
       ELAPSED WALLCLOCK TIME (SEC) =          0
 

 ***WARNING: THE SYSTEM MATRIX HAS 1 NEGATIVE EIGENVALUES.
             EXPLANATIONS ARE SUGGESTED AFTER THE FIRST OCCURRENCE OF THIS MESSAGE.

               CONVERGENCE CHECKS FOR EQUILIBRIUM ITERATION     1

   MAX. PENETRATION ERROR 8.81669E-06 AT NODE PLATE-1.25 OF CONTACT PAIR 
   (ASSEMBLY_S_SURF-1,ASSEMBLY_RIGID_PRESS-1_SURF-3)
   MAX. CONTACT FORCE ERROR 365.166E-03   AT NODE PLATE-1.25 OF CONTACT PAIR 
   (ASSEMBLY_S_SURF-1,ASSEMBLY_RIGID_PRESS-1_SURF-3)
          PENETRATION ERROR TOO LARGE COMPARED TO DISPLACEMENT INCREMENT.

 AVERAGE FORCE                      2.400E+05   TIME AVG. FORCE       9.940E+04
 LARGEST RESIDUAL FORCE             -299.       AT NODE        331   DOF  2
   INSTANCE: PLATE-1                                                                         
 LARGEST INCREMENT OF DISP.        -4.758E-04   AT NODE        378   DOF  1
   INSTANCE: PLATE-1                                                                         
 LARGEST CORRECTION TO DISP.       -4.758E-04   AT NODE        378   DOF  1
   INSTANCE: PLATE-1                                                                         
          DISP.    CORRECTION TOO LARGE COMPARED TO DISP.    INCREMENT

 AVERAGE MOMENT                     2.938E+08   TIME AVG. MOMENT      1.218E+08
 ALL MOMENT    RESIDUALS ARE ZERO
 LARGEST INCREMENT OF ROTATION      6.967E-33   AT NODE          1   DOF  6
   INSTANCE: RIGID_PRESS-1                                                                   
 LARGEST CORRECTION TO ROTATION     6.967E-33   AT NODE          1   DOF  6
   INSTANCE: RIGID_PRESS-1                                                                   
          THE MOMENT    EQUILIBRIUM RESPONSE WAS LINEAR IN THIS INCREMENT

  NUMBER OF EQUATIONS =      2257     NUMBER OF FLOATING PT. OPERATIONS =  1.93E+06

     CHECK POINT   START OF SOLVER    

     CHECK POINT  END OF SOLVER       

       ELAPSED USER TIME (SEC)      =  2.00000E-02
       ELAPSED SYSTEM TIME (SEC)    =   0.0000    
       ELAPSED TOTAL CPU TIME (SEC) =  2.00000E-02
       ELAPSED WALLCLOCK TIME (SEC) =          0
 

 ***WARNING: THE SYSTEM MATRIX HAS 1 NEGATIVE EIGENVALUES.
             EXPLANATIONS ARE SUGGESTED AFTER THE FIRST OCCURRENCE OF THIS MESSAGE.

               CONVERGENCE CHECKS FOR EQUILIBRIUM ITERATION     2

   MAX. PENETRATION ERROR 29.8748E-06  AT NODE PLATE-1.25 OF CONTACT PAIR 
   (ASSEMBLY_S_SURF-1,ASSEMBLY_RIGID_PRESS-1_SURF-3)
   MAX. CONTACT FORCE ERROR 1.23734     AT NODE PLATE-1.25 OF CONTACT PAIR 
   (ASSEMBLY_S_SURF-1,ASSEMBLY_RIGID_PRESS-1_SURF-3)
          PENETRATION ERROR TOO LARGE COMPARED TO DISPLACEMENT INCREMENT.

 AVERAGE FORCE                      2.400E+05   TIME AVG. FORCE       9.940E+04
 LARGEST RESIDUAL FORCE             -213.       AT NODE        774   DOF  2
   INSTANCE: PLATE-1                                                                         
 LARGEST INCREMENT OF DISP.        -2.015E-03   AT NODE        380   DOF  1
   INSTANCE: PLATE-1                                                                         
 LARGEST CORRECTION TO DISP.       -1.544E-03   AT NODE         20   DOF  1
   INSTANCE: PLATE-1                                                                         
          DISP.    CORRECTION TOO LARGE COMPARED TO DISP.    INCREMENT

 AVERAGE MOMENT                     2.938E+08   TIME AVG. MOMENT      1.218E+08
 ALL MOMENT    RESIDUALS ARE ZERO
 LARGEST INCREMENT OF ROTATION      2.399E-32   AT NODE          1   DOF  6
   INSTANCE: RIGID_PRESS-1                                                                   
 LARGEST CORRECTION TO ROTATION     1.702E-32   AT NODE          1   DOF  6
   INSTANCE: RIGID_PRESS-1                                                                   
          THE MOMENT    EQUILIBRIUM EQUATIONS HAVE CONVERGED

  NUMBER OF EQUATIONS =      2257     NUMBER OF FLOATING PT. OPERATIONS =  1.93E+06

     CHECK POINT   START OF SOLVER    

     CHECK POINT  END OF SOLVER       

       ELAPSED USER TIME (SEC)      =  1.00000E-02
       ELAPSED SYSTEM TIME (SEC)    =   0.0000    
       ELAPSED TOTAL CPU TIME (SEC) =  1.00000E-02
       ELAPSED WALLCLOCK TIME (SEC) =          0
 

 ***WARNING: THE SYSTEM MATRIX HAS 1 NEGATIVE EIGENVALUES.
             EXPLANATIONS ARE SUGGESTED AFTER THE FIRST OCCURRENCE OF THIS MESSAGE.

               CONVERGENCE CHECKS FOR EQUILIBRIUM ITERATION     3

   MAX. PENETRATION ERROR 96.3254E-06  AT NODE PLATE-1.25 OF CONTACT PAIR 
   (ASSEMBLY_S_SURF-1,ASSEMBLY_RIGID_PRESS-1_SURF-3)
   MAX. CONTACT FORCE ERROR 3.98956     AT NODE PLATE-1.25 OF CONTACT PAIR 
   (ASSEMBLY_S_SURF-1,ASSEMBLY_RIGID_PRESS-1_SURF-3)
          PENETRATION ERROR TOO LARGE COMPARED TO DISPLACEMENT INCREMENT.

 AVERAGE FORCE                      2.400E+05   TIME AVG. FORCE       9.940E+04
 LARGEST RESIDUAL FORCE             -448.       AT NODE        324   DOF  2
   INSTANCE: PLATE-1                                                                         
 LARGEST INCREMENT OF DISP.        -6.962E-03   AT NODE        756   DOF  1
   INSTANCE: PLATE-1                                                                         
 LARGEST CORRECTION TO DISP.       -4.960E-03   AT NODE        750   DOF  1
   INSTANCE: PLATE-1                                                                         
          DISP.    CORRECTION TOO LARGE COMPARED TO DISP.    INCREMENT

 AVERAGE MOMENT                     2.938E+08   TIME AVG. MOMENT      1.218E+08
 ALL MOMENT    RESIDUALS ARE ZERO
 LARGEST INCREMENT OF ROTATION      7.737E-32   AT NODE          1   DOF  6
   INSTANCE: RIGID_PRESS-1                                                                   
 LARGEST CORRECTION TO ROTATION     5.338E-32   AT NODE          1   DOF  6
   INSTANCE: RIGID_PRESS-1                                                                   
          THE MOMENT    EQUILIBRIUM EQUATIONS HAVE CONVERGED

  NUMBER OF EQUATIONS =      2257     NUMBER OF FLOATING PT. OPERATIONS =  1.93E+06

     CHECK POINT   START OF SOLVER    

     CHECK POINT  END OF SOLVER       

       ELAPSED USER TIME (SEC)      =  1.00000E-02
       ELAPSED SYSTEM TIME (SEC)    =  1.00000E-02
       ELAPSED TOTAL CPU TIME (SEC) =  2.00000E-02
       ELAPSED WALLCLOCK TIME (SEC) =          0
 

 ***WARNING: THE SYSTEM MATRIX HAS 1 NEGATIVE EIGENVALUES.
             EXPLANATIONS ARE SUGGESTED AFTER THE FIRST OCCURRENCE OF THIS MESSAGE.

               CONVERGENCE CHECKS FOR EQUILIBRIUM ITERATION     4

   MAX. PENETRATION ERROR 278.676E-06   AT NODE PLATE-1.25 OF CONTACT PAIR 
   (ASSEMBLY_S_SURF-1,ASSEMBLY_RIGID_PRESS-1_SURF-3)
   MAX. CONTACT FORCE ERROR 11.5421      AT NODE PLATE-1.25 OF CONTACT PAIR 
   (ASSEMBLY_S_SURF-1,ASSEMBLY_RIGID_PRESS-1_SURF-3)
          PENETRATION ERROR TOO LARGE COMPARED TO DISPLACEMENT INCREMENT.

 AVERAGE FORCE                      2.400E+05   TIME AVG. FORCE       9.940E+04
 LARGEST RESIDUAL FORCE              869.       AT NODE        795   DOF  1
   INSTANCE: PLATE-1                                                                         
 LARGEST INCREMENT OF DISP.        -2.130E-02   AT NODE        183   DOF  1
   INSTANCE: PLATE-1                                                                         
 LARGEST CORRECTION TO DISP.       -1.435E-02   AT NODE        183   DOF  1
   INSTANCE: PLATE-1                                                                         
          FORCE     EQUILIBRIUM NOT ACHIEVED WITHIN TOLERANCE.

 AVERAGE MOMENT                     2.938E+08   TIME AVG. MOMENT      1.218E+08
 ALL MOMENT    RESIDUALS ARE ZERO
 LARGEST INCREMENT OF ROTATION      2.316E-31   AT NODE          1   DOF  6
   INSTANCE: RIGID_PRESS-1                                                                   
 LARGEST CORRECTION TO ROTATION     1.542E-31   AT NODE          1   DOF  6
   INSTANCE: RIGID_PRESS-1                                                                   
          THE MOMENT    EQUILIBRIUM EQUATIONS HAVE CONVERGED
 

 ***NOTE: THE SOLUTION APPEARS TO BE DIVERGING. CONVERGENCE IS JUDGED UNLIKELY.
 

 ***ERROR: TOO MANY ATTEMPTS MADE FOR THIS INCREMENT

 ***ERROR: THE ANALYSIS HAS BEEN TERMINATED DUE TO PREVIOUS ERRORS. ALL OUTPUT 
           REQUESTS HAVE BEEN WRITTEN FOR THE LAST CONVERGED INCREMENT.



     ANALYSIS SUMMARY:
     TOTAL OF         32  INCREMENTS
                       9  CUTBACKS IN AUTOMATIC INCREMENTATION
                     118  ITERATIONS INCLUDING CONTACT ITERATIONS IF PRESENT
                     118  PASSES THROUGH THE EQUATION SOLVER OF WHICH 
                     118  INVOLVE MATRIX DECOMPOSITION, INCLUDING
                       0  DECOMPOSITION(S) OF THE MASS MATRIX
                       1  REORDERING OF EQUATIONS TO MINIMIZE WAVEFRONT
                       0  ADDITIONAL RESIDUAL EVALUATIONS FOR LINE SEARCHES
                       0  ADDITIONAL OPERATOR EVALUATIONS FOR LINE SEARCHES
                       2  WARNING MESSAGES DURING USER INPUT PROCESSING
                     127  WARNING MESSAGES DURING ANALYSIS
                       6  ANALYSIS WARNINGS ARE NUMERICAL PROBLEM MESSAGES
                     112  ANALYSIS WARNINGS ARE NEGATIVE EIGENVALUE MESSAGES
                       2  ERROR MESSAGES



     JOB TIME SUMMARY
       USER TIME (SEC)      =   10.300    
       SYSTEM TIME (SEC)    =  0.62000    
       TOTAL CPU TIME (SEC) =   10.920    
       WALLCLOCK TIME (SEC) =         11
