*Heading
** Job name: Job-1 Model name: Model-1
** Generated by: Abaqus/CAE 2016
*Preprint, echo=NO, model=NO, history=NO, contact=NO
**
** PARTS
**
*Part, name=plate
*Node
      1,        -250.,          75.
      2,        -250.,         125.
      3,       -1050.,         125.
      4,       -1050.,          75.
      5,         550.,          75.
      6,         550.,         125.
      7,        -250.,   83.3333359
      8,        -250.,   91.6666641
      9,        -250.,         100.
     10,        -250.,   108.333336
     11,        -250.,   116.666664
     12,        -260.,         125.
     13,        -270.,         125.
     14,        -280.,         125.
     15,        -290.,         125.
     16,        -300.,         125.
     17,        -310.,         125.
     18,        -320.,         125.
     19,        -330.,         125.
     20,        -340.,         125.
** ... 1107 like lines cut
*Element, type=CPE4R
  1,   1,   7, 338, 174
  2,   7,   8, 339, 338
  3,   8,   9, 340, 339
  4,   9,  10, 341, 340
  5,  10,  11, 342, 341
  6,  11,   2,  12, 342
  7, 174, 338, 343, 173
  8, 338, 339, 344, 343
  9, 339, 340, 345, 344
 10, 340, 341, 346, 345
 11, 341, 342, 347, 346
 12, 342,  12,  13, 347
 13, 173, 343, 348, 172
 14, 343, 344, 349, 348
 15, 344, 345, 350, 349
 16, 345, 346, 351, 350
 17, 346, 347, 352, 351
 18, 347,  13,  14, 352
 19, 172, 348, 353, 171
 20, 348, 349, 354, 353
** ... 940 like lines cut
*Nset, nset=Set-1, generate
    1,  1127,     1
*Elset, elset=Set-1, generate
   1,  960,    1
*Nset, nset=Set-20, generate
    1,  1127,     1
*Elset, elset=Set-20, generate
   1,  960,    1
** Section: Section-plate
*Solid Section, elset=Set-20, material=Material-plate
1600.,
*End Part
**  
*Part, name=rigid_press
*End Part
**  
**
** ASSEMBLY
**
*Assembly, name=Assembly
**  
*Instance, name=rigid_press-1, part=rigid_press
        150.,         325.,           0.
*Node
      1,        -400.,        -200.,           0.
*Nset, nset=rigid_press-1-RefPt_, internal
1, 
*Surface, type=SEGMENTS, name=Surf-3
START,        -550.,        -200.
 LINE,        -550.,         200.
 LINE,        -250.,         200.
 LINE,        -250.,        -200.
 LINE,        -550.,        -200.
*End Instance
**  
*Instance, name=plate-1, part=plate
*End Instance
**  
*Nset, nset=Set-3, instance=plate-1
 1,
*Nset, nset=Set-4, instance=plate-1
   1,   4,   5,  96,  97,  98,  99, 100, 101, 102, 103, 104, 105, 106, 107, 108
 109, 110, 111, 112, 113, 114, 115, 116, 117, 118, 119, 120, 121, 122, 123, 124
 125, 126, 127, 128, 129, 130, 131, 132, 133, 134, 135, 136, 137, 138, 139, 140
 141, 142, 143, 144, 145, 146, 147, 148, 149, 150, 151, 152, 153, 154, 155, 156
 157, 158, 159, 160, 161, 162, 163, 164, 165, 166, 167, 168, 169, 170, 171, 172
 173, 174, 175, 176, 177, 178, 179, 180, 181, 182, 183, 184, 185, 186, 187, 188
 189, 190, 191, 192, 193, 194, 195, 196, 197, 198, 199, 200, 201, 202, 203, 204
 205, 206, 207, 208, 209, 210, 211, 212, 213, 214, 215, 216, 217, 218, 219, 220
 221, 222, 223, 224, 225, 226, 227, 228, 229, 230, 231, 232, 233, 234, 235, 236
 237, 238, 239, 240, 241, 242, 243, 244, 245, 246, 247, 248, 249, 250, 251, 252
 253,
*Elset, elset=Set-4, instance=plate-1
   1,   7,  13,  19,  25,  31,  37,  43,  49,  55,  61,  67,  73,  79,  85,  91
  97, 103, 109, 115, 121, 127, 133, 139, 145, 151, 157, 163, 169, 175, 181, 187
 193, 199, 205, 211, 217, 223, 229, 235, 241, 247, 253, 259, 265, 271, 277, 283
 289, 295, 301, 307, 313, 319, 325, 331, 337, 343, 349, 355, 361, 367, 373, 379
 385, 391, 397, 403, 409, 415, 421, 427, 433, 439, 445, 451, 457, 463, 469, 475
 486, 492, 498, 504, 510, 516, 522, 528, 534, 540, 546, 552, 558, 564, 570, 576
 582, 588, 594, 600, 606, 612, 618, 624, 630, 636, 642, 648, 654, 660, 666, 672
 678, 684, 690, 696, 702, 708, 714, 720, 726, 732, 738, 744, 750, 756, 762, 768
 774, 780, 786, 792, 798, 804, 810, 816, 822, 828, 834, 840, 846, 852, 858, 864
 870, 876, 882, 888, 894, 900, 906, 912, 918, 924, 930, 936, 942, 948, 954, 960
*Nset, nset=Set-5, instance=rigid_press-1
 1,
*Nset, nset=_PickedSet24, internal, instance=rigid_press-1
 1,
*Elset, elset=_s_Surf-1_S2, internal, instance=plate-1, generate
   6,  480,    6
*Elset, elset=_s_Surf-1_S4, internal, instance=plate-1, generate
 481,  955,    6
*Surface, type=ELEMENT, name=s_Surf-1
_s_Surf-1_S2, S2
_s_Surf-1_S4, S4
** Constraint: press_part
*Rigid Body, ref node=_PickedSet24, analytical surface=rigid_press-1.Surf-3
*End Assembly
** 
** MATERIALS
** 
*Material, name=Material-plate
*Elastic
70000., 0.3
*Plastic
220.,0.
** 
** INTERACTION PROPERTIES
** 
*Surface Interaction, name=IntProp-1
1.,
*Friction
0.,
*Surface Behavior, pressure-overclosure=HARD
** 
** INTERACTIONS
** 
** Interaction: Int-1
*Contact Pair, interaction=IntProp-1, type=SURFACE TO SURFACE
s_Surf-1, rigid_press-1.Surf-3
** ----------------------------------------------------------------
** 
** STEP: My_Step
** 
*Step, name=My_Step, nlgeom=YES
*Static
0.001, 50., 1e-09, 50.
** 
** BOUNDARY CONDITIONS
** 
** Name: BC-3 Type: Symmetry/Antisymmetry/Encastre
*Boundary
Set-4, YSYMM
** Name: BC-4 Type: Displacement/Rotation
*Boundary
Set-5, 1, 1
Set-5, 2, 2, -50.
Set-5, 6, 6
** 
** OUTPUT REQUESTS
** 
*Restart, write, frequency=0
** 
** FIELD OUTPUT: F-Output-1
** 
*Output, field, variable=PRESELECT
** 
** HISTORY OUTPUT: H-Output-1
** 
*Output, history, variable=PRESELECT
*End Step
