 Abaqus/Standard 3DEXPERIENCE R2016x                  DATE 30-Apr-2018 TIME 14:13:43
 SUMMARY OF JOB INFORMATION:
 STEP  INC ATT SEVERE EQUIL TOTAL  TOTAL      STEP       INC OF       DOF    IF
               DISCON ITERS ITERS  TIME/    TIME/LPF    TIME/LPF    MONITOR RIKS
               ITERS               FREQ
   1     1   1U    0     1     1  0.00       0.00       0.1000    
   1     1   2U    0     4     4  0.00       0.00       0.02500   
   1     1   3     0     5     5  0.00625    0.00625    0.006250  
   1     2   1     0     3     3  0.0125     0.0125     0.006250  
   1     3   1     0     2     2  0.0188     0.0188     0.006250  
   1     4   1     0     2     2  0.0281     0.0281     0.009375  
   1     5   1     0     2     2  0.0422     0.0422     0.01406   
   1     6   1     0     3     3  0.0633     0.0633     0.02109   
   1     7   1     0    10    10  0.0949     0.0949     0.03164   
   1     8   1     0     2     2  0.100      0.100      0.005078  
                          
 THE ANALYSIS HAS COMPLETED SUCCESSFULLY
