1

   Abaqus 3DEXPERIENCE R2016x                                  Date 11-May-2018   Time 09:05:42
   For use at UNIVERSITAET BERN under license from Dassault Systemes or its subsidiary.



                         The Abaqus Software is a product of:

                           Dassault Systemes SIMULIA Corp.
                           1301 Atwood Avenue, Suite 101W
                              Johnston, RI 02919, USA
 


                   Available for internal use at UNIVERSITAET BERN. 
                   The Abaqus Online Support System is accessible
                   through the "My Support" section of the SIMULIA
                   Home Page at http://www.simulia.com.

                   Support policies for academic licenses are described
                   on the SIMULIA web site at
                   http://www.3ds.com/products/simulia/academics/
 
                          On machine localhost.localdomain 
                          you are authorized to run
                          Abaqus/Standard until 31-Jan-2019

                          Your site id is: 200000000031934 


 
                    For assistance or any other information you may
                    obtain contact information for your local office
                    from the world wide web at:

                      http://www.3ds.com/products/simulia/locations/

 
                * * * * * * * * * * * * * * * * * * * * * * * * * * * * * * 
                *                                                         * 
                *                   *****************                     * 
                *                   *  N O T I C E  *                     * 
                *                   *****************                     * 
                *                                                         * 
                *                                                         * 
                *                    Abaqus 3DEXPERIENCE R2016x                                   * 
                *                                                         * 
                *          BUILD ID: 2015_09_24-22.31.09 126547           * 
                *                                                         * 
                *                                                         * 
                *  Please make sure you are using release 3DEXPERIENCE R2016x manuals    * 
                *  plus the notes accompanying this release.              * 
                *                                                         * 
                *                                                         * 
                *                                                         * 
                *                                                         * 
                *                                                         * 
                *   This program may not be used for commercial purposes  * 
                *           without payment of a commercial fee.          * 
                *                                                         * 
                * * * * * * * * * * * * * * * * * * * * * * * * * * * * * * 


 



     PROCESSING PART, INSTANCE, AND ASSEMBLY INFORMATION
   *******************************************************


     END PROCESSING PART, INSTANCE, AND ASSEMBLY INFORMATION
   ***********************************************************




     OPTIONS BEING PROCESSED
   ***************************


  *Heading
  *Node
  *Element, type=CPS4
  *Element, type=CPS3
  *Element, type=CPS4
  *Element, type=CPS3
  *Element, type=CPS4
  *Element, type=CPS3
  *Element, type=CPS4
  *Element, type=CPS3
  *Element, type=CPS4
  *Nset, nset=ASSEMBLY_PART-1-4_SET-19
  *Elset, elset=ASSEMBLY_PART-1-4_SET-19
  *Node
  *Nset, nset=ASSEMBLY_M_SET-8
  *Nset, nset=ASSEMBLY_SET-6
  *Nset, nset=ASSEMBLY_SET-7
  *Nset, nset=ASSEMBLY_SET-8
  *Elset, elset=ASSEMBLY_SET-6
  *Elset, elset=ASSEMBLY_SET-7
  *Elset, elset=ASSEMBLY__S_SURF-2_S3
  *material, name=HYPERPLASTIC
  *hyperelastic, neohooke
  *solidsection, elset=ASSEMBLY_PART-1-4_SET-19, material=HYPERPLASTIC
  *solidsection, elset=ASSEMBLY_PART-1-4_SET-19, material=HYPERPLASTIC
  *surface, type=ELEMENT, name=ASSEMBLY_S_SURF-2
  *surface, type=ELEMENT, name=ASSEMBLY_S_SURF-2
  *coupling, constraintname=ASSEMBLY_CONSTRAINT-1, refnode=ASSEMBLY_M_SET-8, surface=ASSEMBLY_S_SURF-2
  *coupling, constraintname=ASSEMBLY_CONSTRAINT-1, refnode=ASSEMBLY_M_SET-8, surface=ASSEMBLY_S_SURF-2
  *coupling, constraintname=ASSEMBLY_CONSTRAINT-1, refnode=ASSEMBLY_M_SET-8, surface=ASSEMBLY_S_SURF-2
  *kinematic

 ***WARNING: WHENEVER A TRANSLATION (ROTATION) DOF AT A NODE IS CONSTRAINED BY 
             A KINEMATIC COUPLING DEFINITION THE TRANSLATION (ROTATION) DOFS 
             FOR THAT NODE CANNOT BE INCLUDED IN ANY OTHER CONSTRAINT INCLUDING 
             MPCS, RIGID BODIES, ETC.
  *coupling, constraintname=ASSEMBLY_CONSTRAINT-1, refnode=ASSEMBLY_M_SET-8, surface=ASSEMBLY_S_SURF-2
  *boundary
  *boundary
  *boundary
  *boundary
  *surface, type=ELEMENT, name=ASSEMBLY_S_SURF-2
  *output, field, variable=PRESELECT
  *output, history, variable=PRESELECT
  *output, field, variable=PRESELECT
  *output, history, variable=PRESELECT
  *output, field, variable=PRESELECT
  *output, history, variable=PRESELECT

 ***WARNING: MPCS (EXTERNAL or INTERNAL, including those generated from rigid 
             body definitions), KINEMATIC COUPLINGS, AND/OR EQUATIONS WILL 
             ACTIVATE ADDITIONAL DEGREES OF FREEDOM
  
                               E L E M E N T   Q U A L I T Y  C H E C K S        
  
  
 ***NOTES: DISTORTED ISOPARAMETRIC ELEMENTS: ANGLE BETWEEN ISOPARAMETRIC LINES 
           IS LESS THAN 45 DEGREES OR GREATER THAN 135 DEGREES.
  
           TETRAHEDRAL QUALITY MEASURE: VOLUME OF TETRAHEDRON DIVIDED BY THE 
           VOLUME OF EQUILATERAL TETRAHEDRON WITH SAME CIRCUMSPHERE RADIUS; 
           0 FOR DEGENERATE TETRAHEDRON AND 1 FOR EQUILATERIAL TETRAHEDRON. IT 
           IS RECOMMENDED THAT THE TETRAHEDRAL QUALITY MEASURE BE GREATER THAN 
           0.02, THE MIN INTERIOR (DIHEDRAL) ANGLE BE GREATER THAN 10 DEGREES, 
           AND THE MAX INTERIOR (DIHEDRAL) ANGLE BE LESS THAN 160 DEGREES. 
  
           MODIFIED TETRAHEDRAL QUALITY MEASURE: ANGLES BETWEEN THE TWO LINE 
           SEGMENTS ON EACH EDGE; THE EDGES OF MODIFIED TETRAHEDRAL SHOULD BE 
           AS STRAIGHT AS POSSIBLE. IT IS RECOMMENDED THAT THE ANGLE BETWEEN 
           THE TWO LINE SEGMENTS ON EACH EDGE IS BETWEEN 160 AND 180 DEGREES. 
  
           TRIANGULAR QUALITY MEASURE: AREA OF TRIANGLE DIVIDED BY THE AREA OF 
           EQUILATERAL TRIANGLE WITH SAME CIRCUMCIRCLE RADIUS; 0 FOR DEGENERATE 
           TRIANGLE AND 1 FOR EQUILATERAL TRIANGLE. IT IS RECOMMENDED THAT THE
           TRIANGULAR QUALITY MEASURE BE GREATER THAN 0.01, THE MIN INTERIOR 
           ANGLE BE GREATER THAN 10 DEGREES, AND THE MAX INTERIOR ANGLE BE LESS 
           THAN 160 DEGREES. 
  
           NODAL ADJUSTMENTS ARISING FROM CONTACT INTERACTIONS AND/OR TIE 
           CONSTRAINTS CAN CAUSE SEVERE ELEMENT DISTORTION. IT MAY BE NECESSARY 
           TO REMESH IN ORDER TO REDUCE THE AMOUNT OF ADJUSTMENT. 

 ***WARNING: 10 elements are distorted. Either the isoparametric angles are out 
             of the suggested limits or the triangular or tetrahedral quality 
             measure is bad. The elements have been identified in element set 
             WarnElemDistorted.
  
 --------------------------------------------------------------------------------
 Distorted triangular elements
  
      Element       Quality measure     Min angle        Max angle     Adjusted nodes 
 ------------------ ---------------- ---------------- ---------------- -------------- 
       PART-1-4.369        0.0432839          4.08516          138.965       NO       
       PART-1-4.371        0.0306161          3.43489          143.051       NO       
       PART-1-4.392        0.0188204          4.93168          155.229       NO       
       PART-1-4.393        0.0474801          7.84799          147.381       NO       
       PART-1-4.416        0.0306162          3.43489           143.05       NO       
       PART-1-4.417         0.043284          4.08516          138.965       NO       
       PART-1-4.438        0.0474801          7.84799          147.381       NO       
       PART-1-4.443        0.0188204          4.93168          155.229       NO       
  
 --------------------------------------------------------------------------------
 Distorted isoparametric elements
  
      Element        Min/max angle   Adjusted nodes 
 ------------------ ---------------- -------------- 
       PART-1-4.377           44.857       NO       
       PART-1-4.423           44.857       NO       
  
  
  *Step, name=Step-1, nlgeom=YES
  *output, field, variable=PRESELECT
  *output, history, variable=PRESELECT
  *Step, name=Step-1, nlgeom=YES
  *Step, name=Step-1, nlgeom=YES
  *static
  *boundary
  *boundary
  *output, field, variable=PRESELECT
  *output, history, variable=PRESELECT
  *nodeprint, nset=ASSEMBLY_M_SET-8, frequency=1
  *endstep
  *Step, name=Step-1, nlgeom=YES
  *static
  *boundary
  *boundary
  *endstep


                              E L E M E N T,   N O D E,   A N D   S U R F A C E   M A P S


**NOTE: This section may not include complete information about
        members of sets and surfaces. Use *PREPRINT, MODEL=YES 
        in order to get the set and surface members printed    
        under the following sections:                          
            - E L E M E N T   S E T S                          
            - N O D E   S E T S                                
            - S U R F A C E   D E F I N I T I O N S .          


Assembly name: ASSEMBLY
Number of instances: 1

ASSEMBLY LEVEL
  node sets:

    M_SET-8:
      number of nodes: 1
      nodes: 
        1

    SET-6:
      instance name: PART-1-4
      number of nodes: 13
      nodes: 
        14 15 110 111 112 113 114 115 116 117 118 119 120

    SET-7:
      instance name: PART-1-4
      number of nodes: 13
      nodes: 
        9 10 60 61 62 63 64 65 66 67 68 69 70

    SET-8:
      number of nodes: 1
      nodes: 
        1

  element sets:
    SET-6:
      instance name: PART-1-4
      number of elements: 12
      elements: 
        214 224 234 244 254 264 274 284 294 304 314 324

    SET-7:
      instance name: PART-1-4
      number of elements: 12
      elements: 
        153 154 155 156 157 158 159 160 161 162 163 164


  Surfaces:
    S_SURF-2:
      type: element based
      instance name: PART-1-4
        face id:  S3
        number of elements: 12
        elements:
          153 154 155 156 157 158 159 160 161 162 163 164

INSTANCE LEVEL
  node sets:
    Instance name: 
    Instance name: PART-1-4
      node set name: SET-19
        number of nodes: 513
        nodes: 
          2 3 4 5 6 7 8 9 10 11 12 13 14 15 16 17 18 19 20 21 22 23 24
          25 26 27 28 29 30 31 32 33 34 35 36 37 38 39 40 41 42 43 44 45
          46 47 48 49 50 51 52 53 54 55 56 57 58 59 60 61 62 63 64 65 66
          67 68 69 70 71 72 73 74 75 76 77 78 79 80 81 82 83 84 85 86 87
          88 89 90 91 92 93 94 95 96 97 98 99 100 101 102 103 104 105
          106 107 108 109 110 111 112 113 114 115 116 117 118 119 120
          121 122 123 124 125 126 127 128 129 130 131 132 133 134 135
          136 137 138 139 140 141 142 143 144 145 146 147 148 149 150
          151 152 153 154 155 156 157 158 159 160 161 162 163 164 165
          166 167 168 169 170 171 172 173 174 175 176 177 178 179 180
          181 182 183 184 185 186 187 188 189 190 191 192 193 194 195
          196 197 198 199 200 201 202 203 204 205 206 207 208 209 210
          211 212 213 214 215 216 217 218 219 220 221 222 223 224 225
          226 227 228 229 230 231 232 233 234 235 236 237 238 239 240
          241 242 243 244 245 246 247 248 249 250 251 252 253 254 255
          256 257 258 259 260 261 262 263 264 265 266 267 268 269 270
          271 272 273 274 275 276 277 278 279 280 281 282 283 284 285
          286 287 288 289 290 291 292 293 294 295 296 297 298 299 300
          301 302 303 304 305 306 307 308 309 310 311 312 313 314 315
          316 317 318 319 320 321 322 323 324 325 326 327 328 329 330
          331 332 333 334 335 336 337 338 339 340 341 342 343 344 345
          346 347 348 349 350 351 352 353 354 355 356 357 358 359 360
          361 362 363 364 365 366 367 368 369 370 371 372 373 374 375
          376 377 378 379 380 381 382 383 384 385 386 387 388 389 390
          391 392 393 394 395 396 397 398 399 400 401 402 403 404 405
          406 407 408 409 410 411 412 413 414 415 416 417 418 419 420
          421 422 423 424 425 426 427 428 429 430 431 432 433 434 435
          436 437 438 439 440 441 442 443 444 445 446 447 448 449 450
          451 452 453 454 455 456 457 458 459 460 461 462 463 464 465
          466 467 468 469 470 471 472 473 474 475 476 477 478 479 480
          481 482 483 484 485 486 487 488 489 490 491 492 493 494 495
          496 497 498 499 500 501 502 503 504 505 506 507 508 509 510
          511 512 513 514

  element sets:
    Instance name: PART-1-4
      element set name: SET-19
        number of elements: 462
        elements: 
          1 2 3 4 5 6 7 8 9 10 11 12 13 14 15 16 17 18 19 20 21 22 23 24
          25 26 27 28 29 30 31 32 33 34 35 36 37 38 39 40 41 42 43 44 45
          46 47 48 49 50 51 52 53 54 55 56 57 58 59 60 61 62 63 64 65 66
          67 68 69 70 71 72 73 74 75 76 77 78 79 80 81 82 83 84 85 86 87
          88 89 90 91 92 93 94 95 96 97 98 99 100 101 102 103 104 105
          106 107 108 109 110 111 112 113 114 115 116 117 118 119 120
          121 122 123 124 125 126 127 128 129 130 131 132 133 134 135
          136 137 138 139 140 141 142 143 144 145 146 147 148 149 150
          151 152 153 154 155 156 157 158 159 160 161 162 163 164 165
          166 167 168 169 170 171 172 173 174 175 176 177 178 179 180
          181 182 183 184 185 186 187 188 189 190 191 192 193 194 195
          196 197 198 199 200 201 202 203 204 205 206 207 208 209 210
          211 212 213 214 215 216 217 218 219 220 221 222 223 224 225
          226 227 228 229 230 231 232 233 234 235 236 237 238 239 240
          241 242 243 244 245 246 247 248 249 250 251 252 253 254 255
          256 257 258 259 260 261 262 263 264 265 266 267 268 269 270
          271 272 273 274 275 276 277 278 279 280 281 282 283 284 285
          286 287 288 289 290 291 292 293 294 295 296 297 298 299 300
          301 302 303 304 305 306 307 308 309 310 311 312 313 314 315
          316 317 318 319 320 321 322 323 324 325 326 327 328 329 330
          331 332 333 334 335 336 337 338 339 340 341 342 343 344 345
          346 347 348 349 350 351 352 353 354 355 356 357 358 359 360
          361 362 363 364 365 366 367 368 369 370 371 372 373 374 375
          376 377 378 379 380 381 382 383 384 385 386 387 388 389 390
          391 392 393 394 395 396 397 398 399 400 401 402 403 404 405
          406 407 408 409 410 411 412 413 414 415 416 417 418 419 420
          421 422 423 424 425 426 427 428 429 430 431 432 433 434 435
          436 437 438 439 440 441 442 443 444 445 446 447 448 449 450
          451 452 453 454 455 456 457 458 459 460 461 462

  Surfaces:

GLOBAL TO LOCAL NODE AND ELEMENT MAPS
  Global     Local      
  node       node       
  number     number     
                        Instance name                                   
   1          1                                                         
   2          1         PART-1-4                                        
   3          2         PART-1-4                                        
   4          3         PART-1-4                                        
   5          4         PART-1-4                                        
   6          5         PART-1-4                                        
   7          6         PART-1-4                                        
   8          7         PART-1-4                                        
   9          8         PART-1-4                                        
   10         9         PART-1-4                                        
   11         10        PART-1-4                                        
   12         11        PART-1-4                                        
   13         12        PART-1-4                                        
   14         13        PART-1-4                                        
   15         14        PART-1-4                                        
   16         15        PART-1-4                                        
   17         16        PART-1-4                                        
   18         17        PART-1-4                                        
   19         18        PART-1-4                                        
   20         19        PART-1-4                                        
   21         20        PART-1-4                                        
   22         21        PART-1-4                                        
   23         22        PART-1-4                                        
   24         23        PART-1-4                                        
   25         24        PART-1-4                                        
   26         25        PART-1-4                                        
   27         26        PART-1-4                                        
   28         27        PART-1-4                                        
   29         28        PART-1-4                                        
   30         29        PART-1-4                                        
   31         30        PART-1-4                                        
   32         31        PART-1-4                                        
   33         32        PART-1-4                                        
   34         33        PART-1-4                                        
   35         34        PART-1-4                                        
   36         35        PART-1-4                                        
   37         36        PART-1-4                                        
   38         37        PART-1-4                                        
   39         38        PART-1-4                                        
   40         39        PART-1-4                                        
   41         40        PART-1-4                                        
   42         41        PART-1-4                                        
   43         42        PART-1-4                                        
   44         43        PART-1-4                                        
   45         44        PART-1-4                                        
   46         45        PART-1-4                                        
   47         46        PART-1-4                                        
   48         47        PART-1-4                                        
   49         48        PART-1-4                                        
   50         49        PART-1-4                                        
   51         50        PART-1-4                                        
   52         51        PART-1-4                                        
   53         52        PART-1-4                                        
   54         53        PART-1-4                                        
   55         54        PART-1-4                                        
   56         55        PART-1-4                                        
   57         56        PART-1-4                                        
   58         57        PART-1-4                                        
   59         58        PART-1-4                                        
   60         59        PART-1-4                                        
   61         60        PART-1-4                                        
   62         61        PART-1-4                                        
   63         62        PART-1-4                                        
   64         63        PART-1-4                                        
   65         64        PART-1-4                                        
   66         65        PART-1-4                                        
   67         66        PART-1-4                                        
   68         67        PART-1-4                                        
   69         68        PART-1-4                                        
   70         69        PART-1-4                                        
   71         70        PART-1-4                                        
   72         71        PART-1-4                                        
   73         72        PART-1-4                                        
   74         73        PART-1-4                                        
   75         74        PART-1-4                                        
   76         75        PART-1-4                                        
   77         76        PART-1-4                                        
   78         77        PART-1-4                                        
   79         78        PART-1-4                                        
   80         79        PART-1-4                                        
   81         80        PART-1-4                                        
   82         81        PART-1-4                                        
   83         82        PART-1-4                                        
   84         83        PART-1-4                                        
   85         84        PART-1-4                                        
   86         85        PART-1-4                                        
   87         86        PART-1-4                                        
   88         87        PART-1-4                                        
   89         88        PART-1-4                                        
   90         89        PART-1-4                                        
   91         90        PART-1-4                                        
   92         91        PART-1-4                                        
   93         92        PART-1-4                                        
   94         93        PART-1-4                                        
   95         94        PART-1-4                                        
   96         95        PART-1-4                                        
   97         96        PART-1-4                                        
   98         97        PART-1-4                                        
   99         98        PART-1-4                                        
   100        99        PART-1-4                                        
   101        100       PART-1-4                                        
   102        101       PART-1-4                                        
   103        102       PART-1-4                                        
   104        103       PART-1-4                                        
   105        104       PART-1-4                                        
   106        105       PART-1-4                                        
   107        106       PART-1-4                                        
   108        107       PART-1-4                                        
   109        108       PART-1-4                                        
   110        109       PART-1-4                                        
   111        110       PART-1-4                                        
   112        111       PART-1-4                                        
   113        112       PART-1-4                                        
   114        113       PART-1-4                                        
   115        114       PART-1-4                                        
   116        115       PART-1-4                                        
   117        116       PART-1-4                                        
   118        117       PART-1-4                                        
   119        118       PART-1-4                                        
   120        119       PART-1-4                                        
   121        120       PART-1-4                                        
   122        121       PART-1-4                                        
   123        122       PART-1-4                                        
   124        123       PART-1-4                                        
   125        124       PART-1-4                                        
   126        125       PART-1-4                                        
   127        126       PART-1-4                                        
   128        127       PART-1-4                                        
   129        128       PART-1-4                                        
   130        129       PART-1-4                                        
   131        130       PART-1-4                                        
   132        131       PART-1-4                                        
   133        132       PART-1-4                                        
   134        133       PART-1-4                                        
   135        134       PART-1-4                                        
   136        135       PART-1-4                                        
   137        136       PART-1-4                                        
   138        137       PART-1-4                                        
   139        138       PART-1-4                                        
   140        139       PART-1-4                                        
   141        140       PART-1-4                                        
   142        141       PART-1-4                                        
   143        142       PART-1-4                                        
   144        143       PART-1-4                                        
   145        144       PART-1-4                                        
   146        145       PART-1-4                                        
   147        146       PART-1-4                                        
   148        147       PART-1-4                                        
   149        148       PART-1-4                                        
   150        149       PART-1-4                                        
   151        150       PART-1-4                                        
   152        151       PART-1-4                                        
   153        152       PART-1-4                                        
   154        153       PART-1-4                                        
   155        154       PART-1-4                                        
   156        155       PART-1-4                                        
   157        156       PART-1-4                                        
   158        157       PART-1-4                                        
   159        158       PART-1-4                                        
   160        159       PART-1-4                                        
   161        160       PART-1-4                                        
   162        161       PART-1-4                                        
   163        162       PART-1-4                                        
   164        163       PART-1-4                                        
   165        164       PART-1-4                                        
   166        165       PART-1-4                                        
   167        166       PART-1-4                                        
   168        167       PART-1-4                                        
   169        168       PART-1-4                                        
   170        169       PART-1-4                                        
   171        170       PART-1-4                                        
   172        171       PART-1-4                                        
   173        172       PART-1-4                                        
   174        173       PART-1-4                                        
   175        174       PART-1-4                                        
   176        175       PART-1-4                                        
   177        176       PART-1-4                                        
   178        177       PART-1-4                                        
   179        178       PART-1-4                                        
   180        179       PART-1-4                                        
   181        180       PART-1-4                                        
   182        181       PART-1-4                                        
   183        182       PART-1-4                                        
   184        183       PART-1-4                                        
   185        184       PART-1-4                                        
   186        185       PART-1-4                                        
   187        186       PART-1-4                                        
   188        187       PART-1-4                                        
   189        188       PART-1-4                                        
   190        189       PART-1-4                                        
   191        190       PART-1-4                                        
   192        191       PART-1-4                                        
   193        192       PART-1-4                                        
   194        193       PART-1-4                                        
   195        194       PART-1-4                                        
   196        195       PART-1-4                                        
   197        196       PART-1-4                                        
   198        197       PART-1-4                                        
   199        198       PART-1-4                                        
   200        199       PART-1-4                                        
   201        200       PART-1-4                                        
   202        201       PART-1-4                                        
   203        202       PART-1-4                                        
   204        203       PART-1-4                                        
   205        204       PART-1-4                                        
   206        205       PART-1-4                                        
   207        206       PART-1-4                                        
   208        207       PART-1-4                                        
   209        208       PART-1-4                                        
   210        209       PART-1-4                                        
   211        210       PART-1-4                                        
   212        211       PART-1-4                                        
   213        212       PART-1-4                                        
   214        213       PART-1-4                                        
   215        214       PART-1-4                                        
   216        215       PART-1-4                                        
   217        216       PART-1-4                                        
   218        217       PART-1-4                                        
   219        218       PART-1-4                                        
   220        219       PART-1-4                                        
   221        220       PART-1-4                                        
   222        221       PART-1-4                                        
   223        222       PART-1-4                                        
   224        223       PART-1-4                                        
   225        224       PART-1-4                                        
   226        225       PART-1-4                                        
   227        226       PART-1-4                                        
   228        227       PART-1-4                                        
   229        228       PART-1-4                                        
   230        229       PART-1-4                                        
   231        230       PART-1-4                                        
   232        231       PART-1-4                                        
   233        232       PART-1-4                                        
   234        233       PART-1-4                                        
   235        234       PART-1-4                                        
   236        235       PART-1-4                                        
   237        236       PART-1-4                                        
   238        237       PART-1-4                                        
   239        238       PART-1-4                                        
   240        239       PART-1-4                                        
   241        240       PART-1-4                                        
   242        241       PART-1-4                                        
   243        242       PART-1-4                                        
   244        243       PART-1-4                                        
   245        244       PART-1-4                                        
   246        245       PART-1-4                                        
   247        246       PART-1-4                                        
   248        247       PART-1-4                                        
   249        248       PART-1-4                                        
   250        249       PART-1-4                                        
   251        250       PART-1-4                                        
   252        251       PART-1-4                                        
   253        252       PART-1-4                                        
   254        253       PART-1-4                                        
   255        254       PART-1-4                                        
   256        255       PART-1-4                                        
   257        256       PART-1-4                                        
   258        257       PART-1-4                                        
   259        258       PART-1-4                                        
   260        259       PART-1-4                                        
   261        260       PART-1-4                                        
   262        261       PART-1-4                                        
   263        262       PART-1-4                                        
   264        263       PART-1-4                                        
   265        264       PART-1-4                                        
   266        265       PART-1-4                                        
   267        266       PART-1-4                                        
   268        267       PART-1-4                                        
   269        268       PART-1-4                                        
   270        269       PART-1-4                                        
   271        270       PART-1-4                                        
   272        271       PART-1-4                                        
   273        272       PART-1-4                                        
   274        273       PART-1-4                                        
   275        274       PART-1-4                                        
   276        275       PART-1-4                                        
   277        276       PART-1-4                                        
   278        277       PART-1-4                                        
   279        278       PART-1-4                                        
   280        279       PART-1-4                                        
   281        280       PART-1-4                                        
   282        281       PART-1-4                                        
   283        282       PART-1-4                                        
   284        283       PART-1-4                                        
   285        284       PART-1-4                                        
   286        285       PART-1-4                                        
   287        286       PART-1-4                                        
   288        287       PART-1-4                                        
   289        288       PART-1-4                                        
   290        289       PART-1-4                                        
   291        290       PART-1-4                                        
   292        291       PART-1-4                                        
   293        292       PART-1-4                                        
   294        293       PART-1-4                                        
   295        294       PART-1-4                                        
   296        295       PART-1-4                                        
   297        296       PART-1-4                                        
   298        297       PART-1-4                                        
   299        298       PART-1-4                                        
   300        299       PART-1-4                                        
   301        300       PART-1-4                                        
   302        301       PART-1-4                                        
   303        302       PART-1-4                                        
   304        303       PART-1-4                                        
   305        304       PART-1-4                                        
   306        305       PART-1-4                                        
   307        306       PART-1-4                                        
   308        307       PART-1-4                                        
   309        308       PART-1-4                                        
   310        309       PART-1-4                                        
   311        310       PART-1-4                                        
   312        311       PART-1-4                                        
   313        312       PART-1-4                                        
   314        313       PART-1-4                                        
   315        314       PART-1-4                                        
   316        315       PART-1-4                                        
   317        316       PART-1-4                                        
   318        317       PART-1-4                                        
   319        318       PART-1-4                                        
   320        319       PART-1-4                                        
   321        320       PART-1-4                                        
   322        321       PART-1-4                                        
   323        322       PART-1-4                                        
   324        323       PART-1-4                                        
   325        324       PART-1-4                                        
   326        325       PART-1-4                                        
   327        326       PART-1-4                                        
   328        327       PART-1-4                                        
   329        328       PART-1-4                                        
   330        329       PART-1-4                                        
   331        330       PART-1-4                                        
   332        331       PART-1-4                                        
   333        332       PART-1-4                                        
   334        333       PART-1-4                                        
   335        334       PART-1-4                                        
   336        335       PART-1-4                                        
   337        336       PART-1-4                                        
   338        337       PART-1-4                                        
   339        338       PART-1-4                                        
   340        339       PART-1-4                                        
   341        340       PART-1-4                                        
   342        341       PART-1-4                                        
   343        342       PART-1-4                                        
   344        343       PART-1-4                                        
   345        344       PART-1-4                                        
   346        345       PART-1-4                                        
   347        346       PART-1-4                                        
   348        347       PART-1-4                                        
   349        348       PART-1-4                                        
   350        349       PART-1-4                                        
   351        350       PART-1-4                                        
   352        351       PART-1-4                                        
   353        352       PART-1-4                                        
   354        353       PART-1-4                                        
   355        354       PART-1-4                                        
   356        355       PART-1-4                                        
   357        356       PART-1-4                                        
   358        357       PART-1-4                                        
   359        358       PART-1-4                                        
   360        359       PART-1-4                                        
   361        360       PART-1-4                                        
   362        361       PART-1-4                                        
   363        362       PART-1-4                                        
   364        363       PART-1-4                                        
   365        364       PART-1-4                                        
   366        365       PART-1-4                                        
   367        366       PART-1-4                                        
   368        367       PART-1-4                                        
   369        368       PART-1-4                                        
   370        369       PART-1-4                                        
   371        370       PART-1-4                                        
   372        371       PART-1-4                                        
   373        372       PART-1-4                                        
   374        373       PART-1-4                                        
   375        374       PART-1-4                                        
   376        375       PART-1-4                                        
   377        376       PART-1-4                                        
   378        377       PART-1-4                                        
   379        378       PART-1-4                                        
   380        379       PART-1-4                                        
   381        380       PART-1-4                                        
   382        381       PART-1-4                                        
   383        382       PART-1-4                                        
   384        383       PART-1-4                                        
   385        384       PART-1-4                                        
   386        385       PART-1-4                                        
   387        386       PART-1-4                                        
   388        387       PART-1-4                                        
   389        388       PART-1-4                                        
   390        389       PART-1-4                                        
   391        390       PART-1-4                                        
   392        391       PART-1-4                                        
   393        392       PART-1-4                                        
   394        393       PART-1-4                                        
   395        394       PART-1-4                                        
   396        395       PART-1-4                                        
   397        396       PART-1-4                                        
   398        397       PART-1-4                                        
   399        398       PART-1-4                                        
   400        399       PART-1-4                                        
   401        400       PART-1-4                                        
   402        401       PART-1-4                                        
   403        402       PART-1-4                                        
   404        403       PART-1-4                                        
   405        404       PART-1-4                                        
   406        405       PART-1-4                                        
   407        406       PART-1-4                                        
   408        407       PART-1-4                                        
   409        408       PART-1-4                                        
   410        409       PART-1-4                                        
   411        410       PART-1-4                                        
   412        411       PART-1-4                                        
   413        412       PART-1-4                                        
   414        413       PART-1-4                                        
   415        414       PART-1-4                                        
   416        415       PART-1-4                                        
   417        416       PART-1-4                                        
   418        417       PART-1-4                                        
   419        418       PART-1-4                                        
   420        419       PART-1-4                                        
   421        420       PART-1-4                                        
   422        421       PART-1-4                                        
   423        422       PART-1-4                                        
   424        423       PART-1-4                                        
   425        424       PART-1-4                                        
   426        425       PART-1-4                                        
   427        426       PART-1-4                                        
   428        427       PART-1-4                                        
   429        428       PART-1-4                                        
   430        429       PART-1-4                                        
   431        430       PART-1-4                                        
   432        431       PART-1-4                                        
   433        432       PART-1-4                                        
   434        433       PART-1-4                                        
   435        434       PART-1-4                                        
   436        435       PART-1-4                                        
   437        436       PART-1-4                                        
   438        437       PART-1-4                                        
   439        438       PART-1-4                                        
   440        439       PART-1-4                                        
   441        440       PART-1-4                                        
   442        441       PART-1-4                                        
   443        442       PART-1-4                                        
   444        443       PART-1-4                                        
   445        444       PART-1-4                                        
   446        445       PART-1-4                                        
   447        446       PART-1-4                                        
   448        447       PART-1-4                                        
   449        448       PART-1-4                                        
   450        449       PART-1-4                                        
   451        450       PART-1-4                                        
   452        451       PART-1-4                                        
   453        452       PART-1-4                                        
   454        453       PART-1-4                                        
   455        454       PART-1-4                                        
   456        455       PART-1-4                                        
   457        456       PART-1-4                                        
   458        457       PART-1-4                                        
   459        458       PART-1-4                                        
   460        459       PART-1-4                                        
   461        460       PART-1-4                                        
   462        461       PART-1-4                                        
   463        462       PART-1-4                                        
   464        463       PART-1-4                                        
   465        464       PART-1-4                                        
   466        465       PART-1-4                                        
   467        466       PART-1-4                                        
   468        467       PART-1-4                                        
   469        468       PART-1-4                                        
   470        469       PART-1-4                                        
   471        470       PART-1-4                                        
   472        471       PART-1-4                                        
   473        472       PART-1-4                                        
   474        473       PART-1-4                                        
   475        474       PART-1-4                                        
   476        475       PART-1-4                                        
   477        476       PART-1-4                                        
   478        477       PART-1-4                                        
   479        478       PART-1-4                                        
   480        479       PART-1-4                                        
   481        480       PART-1-4                                        
   482        481       PART-1-4                                        
   483        482       PART-1-4                                        
   484        483       PART-1-4                                        
   485        484       PART-1-4                                        
   486        485       PART-1-4                                        
   487        486       PART-1-4                                        
   488        487       PART-1-4                                        
   489        488       PART-1-4                                        
   490        489       PART-1-4                                        
   491        490       PART-1-4                                        
   492        491       PART-1-4                                        
   493        492       PART-1-4                                        
   494        493       PART-1-4                                        
   495        494       PART-1-4                                        
   496        495       PART-1-4                                        
   497        496       PART-1-4                                        
   498        497       PART-1-4                                        
   499        498       PART-1-4                                        
   500        499       PART-1-4                                        
   501        500       PART-1-4                                        
   502        501       PART-1-4                                        
   503        502       PART-1-4                                        
   504        503       PART-1-4                                        
   505        504       PART-1-4                                        
   506        505       PART-1-4                                        
   507        506       PART-1-4                                        
   508        507       PART-1-4                                        
   509        508       PART-1-4                                        
   510        509       PART-1-4                                        
   511        510       PART-1-4                                        
   512        511       PART-1-4                                        
   513        512       PART-1-4                                        
   514        513       PART-1-4                                        

  Global     Local      
  element    element    
  number     number     
                        Instance name                                   
   1          1         PART-1-4                                        
   2          2         PART-1-4                                        
   3          3         PART-1-4                                        
   4          4         PART-1-4                                        
   5          5         PART-1-4                                        
   6          6         PART-1-4                                        
   7          7         PART-1-4                                        
   8          8         PART-1-4                                        
   9          9         PART-1-4                                        
   10         10        PART-1-4                                        
   11         11        PART-1-4                                        
   12         12        PART-1-4                                        
   13         13        PART-1-4                                        
   14         14        PART-1-4                                        
   15         15        PART-1-4                                        
   16         16        PART-1-4                                        
   17         17        PART-1-4                                        
   18         18        PART-1-4                                        
   19         19        PART-1-4                                        
   20         20        PART-1-4                                        
   21         21        PART-1-4                                        
   22         22        PART-1-4                                        
   23         23        PART-1-4                                        
   24         24        PART-1-4                                        
   25         25        PART-1-4                                        
   26         26        PART-1-4                                        
   27         27        PART-1-4                                        
   28         28        PART-1-4                                        
   29         29        PART-1-4                                        
   30         30        PART-1-4                                        
   31         31        PART-1-4                                        
   32         32        PART-1-4                                        
   33         33        PART-1-4                                        
   34         34        PART-1-4                                        
   35         35        PART-1-4                                        
   36         36        PART-1-4                                        
   37         37        PART-1-4                                        
   38         38        PART-1-4                                        
   39         39        PART-1-4                                        
   40         40        PART-1-4                                        
   41         41        PART-1-4                                        
   42         42        PART-1-4                                        
   43         43        PART-1-4                                        
   44         44        PART-1-4                                        
   45         45        PART-1-4                                        
   46         46        PART-1-4                                        
   47         47        PART-1-4                                        
   48         48        PART-1-4                                        
   49         49        PART-1-4                                        
   50         50        PART-1-4                                        
   51         51        PART-1-4                                        
   52         52        PART-1-4                                        
   53         53        PART-1-4                                        
   54         54        PART-1-4                                        
   55         55        PART-1-4                                        
   56         56        PART-1-4                                        
   57         57        PART-1-4                                        
   58         58        PART-1-4                                        
   59         59        PART-1-4                                        
   60         60        PART-1-4                                        
   61         61        PART-1-4                                        
   62         62        PART-1-4                                        
   63         63        PART-1-4                                        
   64         64        PART-1-4                                        
   65         65        PART-1-4                                        
   66         66        PART-1-4                                        
   67         67        PART-1-4                                        
   68         68        PART-1-4                                        
   69         69        PART-1-4                                        
   70         70        PART-1-4                                        
   71         71        PART-1-4                                        
   72         72        PART-1-4                                        
   73         73        PART-1-4                                        
   74         74        PART-1-4                                        
   75         75        PART-1-4                                        
   76         76        PART-1-4                                        
   77         77        PART-1-4                                        
   78         78        PART-1-4                                        
   79         79        PART-1-4                                        
   80         80        PART-1-4                                        
   81         81        PART-1-4                                        
   82         82        PART-1-4                                        
   83         83        PART-1-4                                        
   84         84        PART-1-4                                        
   85         85        PART-1-4                                        
   86         86        PART-1-4                                        
   87         87        PART-1-4                                        
   88         88        PART-1-4                                        
   89         89        PART-1-4                                        
   90         90        PART-1-4                                        
   91         91        PART-1-4                                        
   92         92        PART-1-4                                        
   93         93        PART-1-4                                        
   94         94        PART-1-4                                        
   95         95        PART-1-4                                        
   96         96        PART-1-4                                        
   97         97        PART-1-4                                        
   98         98        PART-1-4                                        
   99         99        PART-1-4                                        
   100        100       PART-1-4                                        
   101        101       PART-1-4                                        
   102        102       PART-1-4                                        
   103        103       PART-1-4                                        
   104        104       PART-1-4                                        
   105        105       PART-1-4                                        
   106        106       PART-1-4                                        
   107        107       PART-1-4                                        
   108        108       PART-1-4                                        
   109        109       PART-1-4                                        
   110        110       PART-1-4                                        
   111        111       PART-1-4                                        
   112        112       PART-1-4                                        
   113        113       PART-1-4                                        
   114        114       PART-1-4                                        
   115        115       PART-1-4                                        
   116        116       PART-1-4                                        
   117        117       PART-1-4                                        
   118        118       PART-1-4                                        
   119        119       PART-1-4                                        
   120        120       PART-1-4                                        
   121        121       PART-1-4                                        
   122        122       PART-1-4                                        
   123        123       PART-1-4                                        
   124        124       PART-1-4                                        
   125        125       PART-1-4                                        
   126        126       PART-1-4                                        
   127        127       PART-1-4                                        
   128        128       PART-1-4                                        
   129        129       PART-1-4                                        
   130        130       PART-1-4                                        
   131        131       PART-1-4                                        
   132        132       PART-1-4                                        
   133        133       PART-1-4                                        
   134        134       PART-1-4                                        
   135        135       PART-1-4                                        
   136        136       PART-1-4                                        
   137        137       PART-1-4                                        
   138        138       PART-1-4                                        
   139        139       PART-1-4                                        
   140        140       PART-1-4                                        
   141        141       PART-1-4                                        
   142        142       PART-1-4                                        
   143        143       PART-1-4                                        
   144        144       PART-1-4                                        
   145        145       PART-1-4                                        
   146        146       PART-1-4                                        
   147        147       PART-1-4                                        
   148        148       PART-1-4                                        
   149        149       PART-1-4                                        
   150        150       PART-1-4                                        
   151        151       PART-1-4                                        
   152        152       PART-1-4                                        
   153        153       PART-1-4                                        
   154        154       PART-1-4                                        
   155        155       PART-1-4                                        
   156        156       PART-1-4                                        
   157        157       PART-1-4                                        
   158        158       PART-1-4                                        
   159        159       PART-1-4                                        
   160        160       PART-1-4                                        
   161        161       PART-1-4                                        
   162        162       PART-1-4                                        
   163        163       PART-1-4                                        
   164        164       PART-1-4                                        
   165        165       PART-1-4                                        
   166        166       PART-1-4                                        
   167        167       PART-1-4                                        
   168        168       PART-1-4                                        
   169        169       PART-1-4                                        
   170        170       PART-1-4                                        
   171        171       PART-1-4                                        
   172        172       PART-1-4                                        
   173        173       PART-1-4                                        
   174        174       PART-1-4                                        
   175        175       PART-1-4                                        
   176        176       PART-1-4                                        
   177        177       PART-1-4                                        
   178        178       PART-1-4                                        
   179        179       PART-1-4                                        
   180        180       PART-1-4                                        
   181        181       PART-1-4                                        
   182        182       PART-1-4                                        
   183        183       PART-1-4                                        
   184        184       PART-1-4                                        
   185        185       PART-1-4                                        
   186        186       PART-1-4                                        
   187        187       PART-1-4                                        
   188        188       PART-1-4                                        
   189        189       PART-1-4                                        
   190        190       PART-1-4                                        
   191        191       PART-1-4                                        
   192        192       PART-1-4                                        
   193        193       PART-1-4                                        
   194        194       PART-1-4                                        
   195        195       PART-1-4                                        
   196        196       PART-1-4                                        
   197        197       PART-1-4                                        
   198        198       PART-1-4                                        
   199        199       PART-1-4                                        
   200        200       PART-1-4                                        
   201        201       PART-1-4                                        
   202        202       PART-1-4                                        
   203        203       PART-1-4                                        
   204        204       PART-1-4                                        
   205        205       PART-1-4                                        
   206        206       PART-1-4                                        
   207        207       PART-1-4                                        
   208        208       PART-1-4                                        
   209        209       PART-1-4                                        
   210        210       PART-1-4                                        
   211        211       PART-1-4                                        
   212        212       PART-1-4                                        
   213        213       PART-1-4                                        
   214        214       PART-1-4                                        
   215        215       PART-1-4                                        
   216        216       PART-1-4                                        
   217        217       PART-1-4                                        
   218        218       PART-1-4                                        
   219        219       PART-1-4                                        
   220        220       PART-1-4                                        
   221        221       PART-1-4                                        
   222        222       PART-1-4                                        
   223        223       PART-1-4                                        
   224        224       PART-1-4                                        
   225        225       PART-1-4                                        
   226        226       PART-1-4                                        
   227        227       PART-1-4                                        
   228        228       PART-1-4                                        
   229        229       PART-1-4                                        
   230        230       PART-1-4                                        
   231        231       PART-1-4                                        
   232        232       PART-1-4                                        
   233        233       PART-1-4                                        
   234        234       PART-1-4                                        
   235        235       PART-1-4                                        
   236        236       PART-1-4                                        
   237        237       PART-1-4                                        
   238        238       PART-1-4                                        
   239        239       PART-1-4                                        
   240        240       PART-1-4                                        
   241        241       PART-1-4                                        
   242        242       PART-1-4                                        
   243        243       PART-1-4                                        
   244        244       PART-1-4                                        
   245        245       PART-1-4                                        
   246        246       PART-1-4                                        
   247        247       PART-1-4                                        
   248        248       PART-1-4                                        
   249        249       PART-1-4                                        
   250        250       PART-1-4                                        
   251        251       PART-1-4                                        
   252        252       PART-1-4                                        
   253        253       PART-1-4                                        
   254        254       PART-1-4                                        
   255        255       PART-1-4                                        
   256        256       PART-1-4                                        
   257        257       PART-1-4                                        
   258        258       PART-1-4                                        
   259        259       PART-1-4                                        
   260        260       PART-1-4                                        
   261        261       PART-1-4                                        
   262        262       PART-1-4                                        
   263        263       PART-1-4                                        
   264        264       PART-1-4                                        
   265        265       PART-1-4                                        
   266        266       PART-1-4                                        
   267        267       PART-1-4                                        
   268        268       PART-1-4                                        
   269        269       PART-1-4                                        
   270        270       PART-1-4                                        
   271        271       PART-1-4                                        
   272        272       PART-1-4                                        
   273        273       PART-1-4                                        
   274        274       PART-1-4                                        
   275        275       PART-1-4                                        
   276        276       PART-1-4                                        
   277        277       PART-1-4                                        
   278        278       PART-1-4                                        
   279        279       PART-1-4                                        
   280        280       PART-1-4                                        
   281        281       PART-1-4                                        
   282        282       PART-1-4                                        
   283        283       PART-1-4                                        
   284        284       PART-1-4                                        
   285        285       PART-1-4                                        
   286        286       PART-1-4                                        
   287        287       PART-1-4                                        
   288        288       PART-1-4                                        
   289        289       PART-1-4                                        
   290        290       PART-1-4                                        
   291        291       PART-1-4                                        
   292        292       PART-1-4                                        
   293        293       PART-1-4                                        
   294        294       PART-1-4                                        
   295        295       PART-1-4                                        
   296        296       PART-1-4                                        
   297        297       PART-1-4                                        
   298        298       PART-1-4                                        
   299        299       PART-1-4                                        
   300        300       PART-1-4                                        
   301        301       PART-1-4                                        
   302        302       PART-1-4                                        
   303        303       PART-1-4                                        
   304        304       PART-1-4                                        
   305        305       PART-1-4                                        
   306        306       PART-1-4                                        
   307        307       PART-1-4                                        
   308        308       PART-1-4                                        
   309        309       PART-1-4                                        
   310        310       PART-1-4                                        
   311        311       PART-1-4                                        
   312        312       PART-1-4                                        
   313        313       PART-1-4                                        
   314        314       PART-1-4                                        
   315        315       PART-1-4                                        
   316        316       PART-1-4                                        
   317        317       PART-1-4                                        
   318        318       PART-1-4                                        
   319        319       PART-1-4                                        
   320        320       PART-1-4                                        
   321        321       PART-1-4                                        
   322        322       PART-1-4                                        
   323        323       PART-1-4                                        
   324        324       PART-1-4                                        
   325        325       PART-1-4                                        
   326        326       PART-1-4                                        
   327        327       PART-1-4                                        
   328        328       PART-1-4                                        
   329        329       PART-1-4                                        
   330        330       PART-1-4                                        
   331        331       PART-1-4                                        
   332        332       PART-1-4                                        
   333        333       PART-1-4                                        
   334        334       PART-1-4                                        
   335        335       PART-1-4                                        
   336        336       PART-1-4                                        
   337        337       PART-1-4                                        
   338        338       PART-1-4                                        
   339        339       PART-1-4                                        
   340        340       PART-1-4                                        
   341        341       PART-1-4                                        
   342        342       PART-1-4                                        
   343        343       PART-1-4                                        
   344        344       PART-1-4                                        
   345        345       PART-1-4                                        
   346        346       PART-1-4                                        
   347        347       PART-1-4                                        
   348        348       PART-1-4                                        
   349        349       PART-1-4                                        
   350        350       PART-1-4                                        
   351        351       PART-1-4                                        
   352        352       PART-1-4                                        
   353        353       PART-1-4                                        
   354        354       PART-1-4                                        
   355        355       PART-1-4                                        
   356        356       PART-1-4                                        
   357        357       PART-1-4                                        
   358        358       PART-1-4                                        
   359        359       PART-1-4                                        
   360        360       PART-1-4                                        
   361        361       PART-1-4                                        
   362        362       PART-1-4                                        
   363        363       PART-1-4                                        
   364        364       PART-1-4                                        
   365        365       PART-1-4                                        
   366        366       PART-1-4                                        
[...]
  PART-1-4                                         351        351       
  PART-1-4                                         352        352       
  PART-1-4                                         353        353       
  PART-1-4                                         354        354       
  PART-1-4                                         355        355       
  PART-1-4                                         356        356       
  PART-1-4                                         357        357       
  PART-1-4                                         358        358       
  PART-1-4                                         359        359       
  PART-1-4                                         360        360       
  PART-1-4                                         361        361       
  PART-1-4                                         362        362       
  PART-1-4                                         363        363       
  PART-1-4                                         364        364       
  PART-1-4                                         365        365       
  PART-1-4                                         366        366       
  PART-1-4                                         367        367       
  PART-1-4                                         368        368       
  PART-1-4                                         369        369       
  PART-1-4                                         370        370       
  PART-1-4                                         371        371       
  PART-1-4                                         372        372       
  PART-1-4                                         373        373       
  PART-1-4                                         374        374       
  PART-1-4                                         375        375       
  PART-1-4                                         376        376       
  PART-1-4                                         377        377       
  PART-1-4                                         378        378       
  PART-1-4                                         379        379       
  PART-1-4                                         380        380       
  PART-1-4                                         381        381       
  PART-1-4                                         382        382       
  PART-1-4                                         383        383       
  PART-1-4                                         384        384       
  PART-1-4                                         385        385       
  PART-1-4                                         386        386       
  PART-1-4                                         387        387       
  PART-1-4                                         388        388       
  PART-1-4                                         389        389       
  PART-1-4                                         390        390       
  PART-1-4                                         391        391       
  PART-1-4                                         392        392       
  PART-1-4                                         393        393       
  PART-1-4                                         394        394       
  PART-1-4                                         395        395       
  PART-1-4                                         396        396       
  PART-1-4                                         397        397       
  PART-1-4                                         398        398       
  PART-1-4                                         399        399       
  PART-1-4                                         400        400       
  PART-1-4                                         401        401       
  PART-1-4                                         402        402       
  PART-1-4                                         403        403       
  PART-1-4                                         404        404       
  PART-1-4                                         405        405       
  PART-1-4                                         406        406       
  PART-1-4                                         407        407       
  PART-1-4                                         408        408       
  PART-1-4                                         409        409       
  PART-1-4                                         410        410       
  PART-1-4                                         411        411       
  PART-1-4                                         412        412       
  PART-1-4                                         413        413       
  PART-1-4                                         414        414       
  PART-1-4                                         415        415       
  PART-1-4                                         416        416       
  PART-1-4                                         417        417       
  PART-1-4                                         418        418       
  PART-1-4                                         419        419       
  PART-1-4                                         420        420       
  PART-1-4                                         421        421       
  PART-1-4                                         422        422       
  PART-1-4                                         423        423       
  PART-1-4                                         424        424       
  PART-1-4                                         425        425       
  PART-1-4                                         426        426       
  PART-1-4                                         427        427       
  PART-1-4                                         428        428       
  PART-1-4                                         429        429       
  PART-1-4                                         430        430       
  PART-1-4                                         431        431       
  PART-1-4                                         432        432       
  PART-1-4                                         433        433       
  PART-1-4                                         434        434       
  PART-1-4                                         435        435       
  PART-1-4                                         436        436       
  PART-1-4                                         437        437       
  PART-1-4                                         438        438       
  PART-1-4                                         439        439       
  PART-1-4                                         440        440       
  PART-1-4                                         441        441       
  PART-1-4                                         442        442       
  PART-1-4                                         443        443       
  PART-1-4                                         444        444       
  PART-1-4                                         445        445       
  PART-1-4                                         446        446       
  PART-1-4                                         447        447       
  PART-1-4                                         448        448       
  PART-1-4                                         449        449       
  PART-1-4                                         450        450       
  PART-1-4                                         451        451       
  PART-1-4                                         452        452       
  PART-1-4                                         453        453       
  PART-1-4                                         454        454       
  PART-1-4                                         455        455       
  PART-1-4                                         456        456       
  PART-1-4                                         457        457       
  PART-1-4                                         458        458       
  PART-1-4                                         459        459       
  PART-1-4                                         460        460       
  PART-1-4                                         461        461       
  PART-1-4                                         462        462       




                            P R O B L E M   S I Z E


          NUMBER OF ELEMENTS IS                                   462
          NUMBER OF NODES IS                                      514
          NUMBER OF NODES DEFINED BY THE USER                     514
          TOTAL NUMBER OF VARIABLES IN THE MODEL                 1042
          (DEGREES OF FREEDOM PLUS MAX NO. OF ANY LAGRANGE MULTIPLIER
           VARIABLES. INCLUDE *PRINT,SOLVE=YES TO GET THE ACTUAL NUMBER.)



                              END OF USER INPUT PROCESSING



     JOB TIME SUMMARY
       USER TIME (SEC)      =  0.64000    
       SYSTEM TIME (SEC)    =  0.98000    
       TOTAL CPU TIME (SEC) =   1.6200    
       WALLCLOCK TIME (SEC) =          4
1

   Abaqus 3DEXPERIENCE R2016x                                  Date 11-May-2018   Time 09:05:57
   For use at UNIVERSITAET BERN under license from Dassault Systemes or its subsidiary.

                                                                                               STEP    1  INCREMENT    1
                                                                                          TIME COMPLETED IN THIS STEP   0.00    


                        S T E P       1     S T A T I C   A N A L Y S I S


                                                                                          

     AUTOMATIC TIME CONTROL WITH -
          A SUGGESTED INITIAL TIME INCREMENT OF                0.100    
          AND A TOTAL TIME PERIOD OF                            1.00    
          THE MINIMUM TIME INCREMENT ALLOWED IS                1.000E-05
          THE MAXIMUM TIME INCREMENT ALLOWED IS                0.100    

     LINEAR EQUATION SOLVER TYPE         DIRECT SPARSE

          LARGE DISPLACEMENT THEORY WILL BE USED
  
                   M E M O R Y   E S T I M A T E
  
 PROCESS      FLOATING PT       MINIMUM MEMORY        MEMORY TO
              OPERATIONS           REQUIRED          MINIMIZE I/O
             PER ITERATION           (MB)               (MB)
  
     1          9.39E+05               17                 24
  
 NOTE:
      (1) SINCE ABAQUS DOES NOT PRE-ALLOCATE MEMORY AND ONLY ALLOCATES MEMORY AS NEEDED DURING THE ANALYSIS,
          THE MEMORY REQUIREMENT PRINTED HERE CAN ONLY BE VIEWED AS A GENERAL GUIDELINE BASED ON THE BEST
          KNOWLEDGE AVAILABLE AT THE BEGINNING OF A STEP BEFORE THE SOLUTION PROCESS HAS BEGUN.
      (2) THE ESTIMATE IS NORMALLY UPDATED AT THE BEGINNING OF EVERY STEP. IT IS THE MAXIMUM VALUE OF THE
          ESTIMATE FROM THE CURRENT STEP TO THE LAST STEP OF THE ANALYSIS, WITH UNSYMMETRIC SOLUTION TAKEN
          INTO ACCOUNT IF APPLICABLE. 
      (3) SINCE THE ESTIMATE IS BASED ON THE ACTIVE DEGREES OF FREEDOM IN THE FIRST ITERATION OF THE 
          CURRENT STEP, THE MEMORY ESTIMATE MIGHT BE SIGNIFICANTLY DIFFERENT THAN ACTUAL USAGE FOR 
          PROBLEMS WITH SUBSTANTIAL CHANGES IN ACTIVE DEGREES OF FREEDOM BETWEEN STEPS (OR EVEN WITHIN
          THE SAME STEP). EXAMPLES ARE: PROBLEMS WITH SIGNIFICANT CONTACT CHANGES, PROBLEMS WITH MODEL
          CHANGE, PROBLEMS WITH BOTH STATIC STEP AND STEADY STATE DYNAMIC PROCEDURES WHERE ACOUSTIC 
          ELEMENTS WILL ONLY BE ACTIVATED IN THE STEADY STATE DYNAMIC STEPS.
      (4) FOR MULTI-PROCESS EXECUTION, THE ESTIMATED VALUE OF FLOATING POINT OPERATIONS FOR EACH PROCESS
          IS BASED ON AN INITIAL SCHEDULING OF OPERATIONS AND MIGHT NOT REFLECT THE ACTUAL FLOATING 
          POINT OPERATIONS COMPLETED ON EACH PROCESS. OPERATIONS ARE DYNAMICALLY BALANCED DURING EXECUTION, 
          SO THE ACTUAL BALANCE OF OPERATIONS BETWEEN PROCESSES IS EXPECTED TO BE BETTER THAN THE ESTIMATE
          PRINTED HERE.
      (5) THE UPPER LIMIT OF MEMORY THAT CAN BE ALLOCATED BY ABAQUS WILL IN GENERAL DEPEND ON THE VALUE OF
          THE "MEMORY" PARAMETER AND THE AMOUNT OF PHYSICAL MEMORY AVAILABLE ON THE MACHINE. PLEASE SEE
          THE "ABAQUS ANALYSIS USER'S MANUAL" FOR MORE DETAILS. THE ACTUAL USAGE OF MEMORY AND OF DISK
          SPACE FOR SCRATCH DATA WILL DEPEND ON THIS UPPER LIMIT AS WELL AS THE MEMORY REQUIRED TO MINIMIZE
          I/O. IF THE MEMORY UPPER LIMIT IS GREATER THAN THE MEMORY REQUIRED TO MINIMIZE I/O, THEN THE ACTUAL
          MEMORY USAGE WILL BE CLOSE TO THE ESTIMATED "MEMORY TO MINIMIZE I/O" VALUE, AND THE SCRATCH DISK
          USAGE WILL BE CLOSE-TO-ZERO; OTHERWISE, THE ACTUAL MEMORY USED WILL BE CLOSE TO THE PREVIOUSLY
          MENTIONED MEMORY LIMIT, AND THE SCRATCH DISK USAGE WILL BE ROUGHLY PROPORTIONAL TO THE DIFFERENCE
          BETWEEN THE ESTIMATED "MEMORY TO MINIMIZE I/O" AND THE MEMORY UPPER LIMIT. HOWEVER ACCURATE
          ESTIMATE OF THE SCRATCH DISK SPACE IS NOT POSSIBLE.
      (6) USING "*RESTART, WRITE" CAN GENERATE A LARGE AMOUNT OF DATA WRITTEN IN THE WORK DIRECTORY.


                                INCREMENT     1 SUMMARY


 TIME INCREMENT COMPLETED  0.100    ,  FRACTION OF STEP COMPLETED  0.100    
 STEP TIME COMPLETED       0.100    ,  TOTAL TIME COMPLETED        0.100    
  
  
  
  
                                       N O D E   O U T P U T
  
  
  
  
   THE FOLLOWING TABLE IS PRINTED FOR NODES BELONGING TO NODE SET ASSEMBLY_M_SET-8
  
       NODE FOOT-  U2             RF2          
            NOTE
  
         1      2.0000000E+00  1.0321640E-01 

 MAXIMUM          2.000      0.1032    
 AT NODE                 1           1

 MINIMUM          2.000      0.1032    
 AT NODE                 1           1


                                INCREMENT     2 SUMMARY


 TIME INCREMENT COMPLETED  0.100    ,  FRACTION OF STEP COMPLETED  0.200    
 STEP TIME COMPLETED       0.200    ,  TOTAL TIME COMPLETED        0.200    
  
  
  
  
                                       N O D E   O U T P U T
  
  
  
  
   THE FOLLOWING TABLE IS PRINTED FOR NODES BELONGING TO NODE SET ASSEMBLY_M_SET-8
  
       NODE FOOT-  U2             RF2          
            NOTE
  
         1      4.0000000E+00  1.9809550E-01 

 MAXIMUM          4.000      0.1981    
 AT NODE                 1           1

 MINIMUM          4.000      0.1981    
 AT NODE                 1           1


                                INCREMENT     3 SUMMARY


 TIME INCREMENT COMPLETED  0.100    ,  FRACTION OF STEP COMPLETED  0.300    
 STEP TIME COMPLETED       0.300    ,  TOTAL TIME COMPLETED        0.300    
  
  
  
  
                                       N O D E   O U T P U T
  
  
  
  
   THE FOLLOWING TABLE IS PRINTED FOR NODES BELONGING TO NODE SET ASSEMBLY_M_SET-8
  
       NODE FOOT-  U2             RF2          
            NOTE
  
         1      6.0000000E+00  2.8585356E-01 

 MAXIMUM          6.000      0.2859    
 AT NODE                 1           1

 MINIMUM          6.000      0.2859    
 AT NODE                 1           1


                                INCREMENT     4 SUMMARY


 TIME INCREMENT COMPLETED  0.100    ,  FRACTION OF STEP COMPLETED  0.400    
 STEP TIME COMPLETED       0.400    ,  TOTAL TIME COMPLETED        0.400    
  
  
  
  
                                       N O D E   O U T P U T
  
  
  
  
   THE FOLLOWING TABLE IS PRINTED FOR NODES BELONGING TO NODE SET ASSEMBLY_M_SET-8
  
       NODE FOOT-  U2             RF2          
            NOTE
  
         1      8.0000000E+00  3.6754371E-01 

 MAXIMUM          8.000      0.3675    
 AT NODE                 1           1

 MINIMUM          8.000      0.3675    
 AT NODE                 1           1


                                INCREMENT     5 SUMMARY


 TIME INCREMENT COMPLETED  0.100    ,  FRACTION OF STEP COMPLETED  0.500    
 STEP TIME COMPLETED       0.500    ,  TOTAL TIME COMPLETED        0.500    
  
  
  
  
                                       N O D E   O U T P U T
  
  
  
  
   THE FOLLOWING TABLE IS PRINTED FOR NODES BELONGING TO NODE SET ASSEMBLY_M_SET-8
  
       NODE FOOT-  U2             RF2          
            NOTE
  
         1      1.0000000E+01  4.4409864E-01 

 MAXIMUM          10.00      0.4441    
 AT NODE                 1           1

 MINIMUM          10.00      0.4441    
 AT NODE                 1           1


                                INCREMENT     6 SUMMARY


 TIME INCREMENT COMPLETED  0.100    ,  FRACTION OF STEP COMPLETED  0.600    
 STEP TIME COMPLETED       0.600    ,  TOTAL TIME COMPLETED        0.600    
  
  
  
  
                                       N O D E   O U T P U T
  
  
  
  
   THE FOLLOWING TABLE IS PRINTED FOR NODES BELONGING TO NODE SET ASSEMBLY_M_SET-8
  
       NODE FOOT-  U2             RF2          
            NOTE
  
         1      1.2000000E+01  5.1629617E-01 

 MAXIMUM          12.00      0.5163    
 AT NODE                 1           1

 MINIMUM          12.00      0.5163    
 AT NODE                 1           1


                                INCREMENT     7 SUMMARY


 TIME INCREMENT COMPLETED  0.100    ,  FRACTION OF STEP COMPLETED  0.700    
 STEP TIME COMPLETED       0.700    ,  TOTAL TIME COMPLETED        0.700    
  
  
  
  
                                       N O D E   O U T P U T
  
  
  
  
   THE FOLLOWING TABLE IS PRINTED FOR NODES BELONGING TO NODE SET ASSEMBLY_M_SET-8
  
       NODE FOOT-  U2             RF2          
            NOTE
  
         1      1.4000000E+01  5.8478647E-01 

 MAXIMUM          14.00      0.5848    
 AT NODE                 1           1

 MINIMUM          14.00      0.5848    
 AT NODE                 1           1


                                INCREMENT     8 SUMMARY


 TIME INCREMENT COMPLETED  0.100    ,  FRACTION OF STEP COMPLETED  0.800    
 STEP TIME COMPLETED       0.800    ,  TOTAL TIME COMPLETED        0.800    
  
  
  
  
                                       N O D E   O U T P U T
  
  
  
  
   THE FOLLOWING TABLE IS PRINTED FOR NODES BELONGING TO NODE SET ASSEMBLY_M_SET-8
  
       NODE FOOT-  U2             RF2          
            NOTE
  
         1      1.6000000E+01  6.5011163E-01 

 MAXIMUM          16.00      0.6501    
 AT NODE                 1           1

 MINIMUM          16.00      0.6501    
 AT NODE                 1           1


                                INCREMENT     9 SUMMARY


 TIME INCREMENT COMPLETED  0.100    ,  FRACTION OF STEP COMPLETED  0.900    
 STEP TIME COMPLETED       0.900    ,  TOTAL TIME COMPLETED        0.900    
  
  
  
  
                                       N O D E   O U T P U T
  
  
  
  
   THE FOLLOWING TABLE IS PRINTED FOR NODES BELONGING TO NODE SET ASSEMBLY_M_SET-8
  
       NODE FOOT-  U2             RF2          
            NOTE
  
         1      1.8000000E+01  7.1272333E-01 

 MAXIMUM          18.00      0.7127    
 AT NODE                 1           1

 MINIMUM          18.00      0.7127    
 AT NODE                 1           1


                                INCREMENT    10 SUMMARY


 TIME INCREMENT COMPLETED  0.100    ,  FRACTION OF STEP COMPLETED   1.00    
 STEP TIME COMPLETED        1.00    ,  TOTAL TIME COMPLETED         1.00    
  
  
  
  
                                       N O D E   O U T P U T
  
  
  
  
   THE FOLLOWING TABLE IS PRINTED FOR NODES BELONGING TO NODE SET ASSEMBLY_M_SET-8
  
       NODE FOOT-  U2             RF2          
            NOTE
  
         1      2.0000000E+01  7.7299809E-01 

 MAXIMUM          20.00      0.7730    
 AT NODE                 1           1

 MINIMUM          20.00      0.7730    
 AT NODE                 1           1


          THE ANALYSIS HAS BEEN COMPLETED



                              ANALYSIS COMPLETE
                              WITH      3 WARNING MESSAGES ON THE DAT FILE



     JOB TIME SUMMARY
       USER TIME (SEC)      =   2.2400    
       SYSTEM TIME (SEC)    =   1.1100    
       TOTAL CPU TIME (SEC) =   3.3500    
       WALLCLOCK TIME (SEC) =          5
