*Heading
** Job name: CPS4R_4_24 Model name: Assignment1
** Generated by: Abaqus/CAE 2016
*Preprint, echo=NO, model=NO, history=NO, contact=NO
**
** PARTS
**
*Part, name=PartAssignment1
*Node
      1,         200.,          -5.
      2,        187.5,          -5.
      3,         175.,          -5.
      4,        162.5,          -5.
      5,         150.,          -5.
      6,        137.5,          -5.
      7,         125.,          -5.
      8,        112.5,          -5.
      9,         100.,          -5.
     10,         87.5,          -5.
     11,          75.,          -5.
     12,         62.5,          -5.
     13,          50.,          -5.
     14,         37.5,          -5.
     15,          25.,          -5.
     16,         12.5,          -5.
     17,           0.,          -5.
     18,        -12.5,          -5.
     19,         -25.,          -5.
     20,        -37.5,          -5.
** ... 105 like lines cut
*Element, type=CPS4R
 1,   1,   2,  27,  26
 2,   2,   3,  28,  27
 3,   3,   4,  29,  28
 4,   4,   5,  30,  29
 5,   5,   6,  31,  30
 6,   6,   7,  32,  31
 7,   7,   8,  33,  32
 8,   8,   9,  34,  33
 9,   9,  10,  35,  34
10,  10,  11,  36,  35
11,  11,  12,  37,  36
12,  12,  13,  38,  37
13,  13,  14,  39,  38
14,  14,  15,  40,  39
15,  15,  16,  41,  40
16,  16,  17,  42,  41
17,  17,  18,  43,  42
18,  18,  19,  44,  43
19,  19,  20,  45,  44
20,  20,  21,  46,  45
** ... 76 like lines cut
*Nset, nset=Set-1, generate
   1,  125,    1
*Elset, elset=Set-1, generate
  1,  96,   1
** Section: SectionAssignment1
*Solid Section, elset=Set-1, material=steel
5.,
*End Part
**  
**
** ASSEMBLY
**
*Assembly, name=Assembly
**  
*Instance, name=PartAssignment1-1, part=PartAssignment1
*End Instance
**  
*Nset, nset=Set-1, instance=PartAssignment1-1, generate
  25,  125,   25
*Elset, elset=Set-1, instance=PartAssignment1-1, generate
 24,  96,  24
*Nset, nset=Set-2, instance=PartAssignment1-1
 101,
*Nset, nset=Set-3, instance=PartAssignment1-1
 1,
*End Assembly
** 
** MATERIALS
** 
*Material, name=steel
*Elastic
90000., 0.3
** 
** BOUNDARY CONDITIONS
** 
** Name: FixLeftEnd Type: Symmetry/Antisymmetry/Encastre
*Boundary
Set-1, ENCASTRE
** ----------------------------------------------------------------
** 
** STEP: Load
** 
*Step, name=Load, nlgeom=NO
load of assignment1
*Static
1., 1., 1e-05, 1.
** 
** LOADS
** 
** Name: Load-1   Type: Concentrated force
*Cload
Set-2, 2, -25.
** Name: Load-2   Type: Concentrated force
*Cload
Set-3, 2, -25.
** 
** OUTPUT REQUESTS
** 
*Restart, write, frequency=0
** 
** FIELD OUTPUT: F-Output-1
** 
*Output, field
*Node Output
RF, U
*Element Output, directions=YES
S, 
** 
** HISTORY OUTPUT: H-Output-1
** 
*Output, history, variable=PRESELECT
*End Step
